
     RDKit          2D

 17 17  0  0  0  0  0  0  0  0999 V2000
    3.7500    1.2990    0.0000 O   0  0  0  0  0  0  0  0  0  0  0  0
    3.0000    0.0000    0.0000 C   0  0  0  0  0  0  0  0  0  0  0  0
    3.7500   -1.2990    0.0000 N   0  0  0  0  0  0  0  0  0  0  0  0
    5.2500   -1.2990    0.0000 C   0  0  0  0  0  0  0  0  0  0  0  0
    6.0000   -2.5981    0.0000 C   0  0  0  0  0  0  0  0  0  0  0  0
    5.2500   -3.8971    0.0000 N   0  0  0  0  0  0  0  0  0  0  0  0
    6.0000   -5.1962    0.0000 R   0  0  0  0  0  1  0  0  0  1  0  0
    7.5000   -2.5981    0.0000 C   0  0  0  0  0  0  0  0  0  0  0  0
    8.2500   -1.2990    0.0000 O   0  0  0  0  0  0  0  0  0  0  0  0
    8.2500   -3.8971    0.0000 R   0  0  0  0  0  1  0  0  0  2  0  0
    1.5000    0.0000    0.0000 C   0  0  0  0  0  0  0  0  0  0  0  0
    0.7500   -1.2990    0.0000 C   0  0  0  0  0  0  0  0  0  0  0  0
   -0.7500   -1.2990    0.0000 C   0  0  0  0  0  0  0  0  0  0  0  0
   -1.5000    0.0000    0.0000 C   0  0  0  0  0  0  0  0  0  0  0  0
   -3.0000    0.0000    0.0000 Cl  0  0  0  0  0  0  0  0  0  0  0  0
   -0.7500    1.2990    0.0000 C   0  0  0  0  0  0  0  0  0  0  0  0
    0.7500    1.2990    0.0000 C   0  0  0  0  0  0  0  0  0  0  0  0
  1  2  2  0
  2  3  1  0
  3  4  1  0
  5  4  1  1
  5  6  1  0
  6  7  1  0
  5  8  1  0
  8  9  2  0
  8 10  1  0
  2 11  1  0
 11 12  2  0
 12 13  1  0
 13 14  2  0
 14 15  1  0
 14 16  1  0
 16 17  2  0
 17 11  1  0
M  END
>  <id>  (1) 
68307c85-b365-4adf-a3f2-85418c724e27

>  <Version>  (1) 
0

>  <Alias>  (1) 
Dap-a34

>  <Type>  (1) 
amino_acid

>  <Smiles>  (1) 
O=C(NC[C@H](N[*:1])C(=O)[*:2])c1ccc(Cl)cc1

>  <ProtectedSmiles>  (1) 
O=C(N[C@@H](CNC(=O)c1ccc(Cl)cc1)C(=O)O)OCC1c2ccccc2-c2ccccc21

>  <CAS>  (1) 


>  <User>  (1) 
claire.m

>  <StereoComment>  (1) 
as drawn

>  <Name>  (1) 
(2S)-3-[(4-chlorobenzoyl)amino]-2-(9H-fluoren-9-ylmethoxycarbonylamino)propanoic acid

>  <Code>  (1) 
Dap-a34

>  <AliasLowerCase>  (1) 
dap-a34

>  <LatestVersion>  (1) 
0.0

>  <createdAt>  (1) 
2026-01-14T11:34:02.723Z

>  <updatedAt>  (1) 
2026-01-14T11:34:02.723Z

>  <NumRotatableBonds>  (1) 
5

>  <is_N_methyl>  (1) 
False

>  <is_a_methyl>  (1) 
False

>  <is_alpha_aa>  (1) 
True

>  <is_beta_aa>  (1) 
False

>  <is_S100_aa>  (1) 
False

>  <Murcko_SMILES>  (1) 
c1ccccc1

$$$$

     RDKit          2D

 11 12  0  0  0  0  0  0  0  0999 V2000
    3.9799    1.4144    0.0000 O   0  0  0  0  0  0  0  0  0  0  0  0
    2.9762    2.5291    0.0000 C   0  0  0  0  0  0  0  0  0  0  0  0
    1.5090    2.2172    0.0000 C   0  0  0  0  0  0  0  0  0  0  0  0
    0.0824    2.6807    0.0000 C   0  0  0  0  0  0  0  0  0  0  0  0
    0.3943    1.2135    0.0000 C   0  0  0  0  0  0  0  0  0  0  0  0
    1.2760    0.0000    0.0000 C   0  0  0  0  0  0  0  0  0  0  0  0
    0.3943   -1.2135    0.0000 C   0  0  0  0  0  0  0  0  0  0  0  0
   -1.0323   -0.7500    0.0000 N   0  0  0  0  0  0  0  0  0  0  0  0
   -2.2458   -1.6317    0.0000 R   0  0  0  0  0  1  0  0  0  1  0  0
   -1.0323    0.7500    0.0000 C   0  0  0  0  0  0  0  0  0  0  0  0
    3.4398    3.9557    0.0000 R   0  0  0  0  0  1  0  0  0  2  0  0
  1  2  2  0
  2  3  1  0
  3  4  1  0
  4  5  1  0
  5  6  1  0
  6  7  1  0
  7  8  1  0
  8  9  1  0
  8 10  1  0
  2 11  1  0
  5  3  1  0
 10  5  1  0
M  END
>  <id>  (2) 
33f4c759-ab7a-4802-8426-6219f03f3570

>  <Version>  (2) 
0

>  <Alias>  (2) 
rac5AzSpiroCA

>  <Type>  (2) 
amino_acid

>  <Smiles>  (2) 
O=C(C1CC12CCN([*:1])C2)[*:2]

>  <ProtectedSmiles>  (2) 
O=C(O)C1CC12CCN(C(=O)OCC1c3ccccc3-c3ccccc31)C2

>  <CAS>  (2) 
1936276-26-4

>  <User>  (2) 
Sevan.habeshian@orbismedicines.com

>  <StereoComment>  (2) 
as drawn

>  <Name>  (2) 
N/A

>  <Code>  (2) 
rac5AzSpiroCA

>  <AliasLowerCase>  (2) 
rac5azspiroca

>  <LatestVersion>  (2) 
0.0

>  <createdAt>  (2) 
2026-02-13T09:56:35.492Z

>  <updatedAt>  (2) 
2026-02-13T09:56:35.492Z

>  <NumRotatableBonds>  (2) 
1

>  <is_N_methyl>  (2) 
False

>  <is_a_methyl>  (2) 
False

>  <is_alpha_aa>  (2) 
False

>  <is_beta_aa>  (2) 
False

>  <is_S100_aa>  (2) 
False

>  <Murcko_SMILES>  (2) 
C1CC2(CC2)CN1

$$$$

     RDKit          2D

 15 15  0  0  0  0  0  0  0  0999 V2000
    3.7500   -1.2990    0.0000 C   0  0  0  0  0  0  0  0  0  0  0  0
    3.0000    0.0000    0.0000 O   0  0  0  0  0  0  0  0  0  0  0  0
    1.5000    0.0000    0.0000 C   0  0  0  0  0  0  0  0  0  0  0  0
    0.7500   -1.2990    0.0000 C   0  0  0  0  0  0  0  0  0  0  0  0
   -0.7500   -1.2990    0.0000 C   0  0  0  0  0  0  0  0  0  0  0  0
   -1.5000    0.0000    0.0000 C   0  0  0  0  0  0  0  0  0  0  0  0
   -0.7500    1.2990    0.0000 C   0  0  0  0  0  0  0  0  0  0  0  0
   -1.5000    2.5981    0.0000 C   0  0  0  0  0  0  0  0  0  0  0  0
   -0.7500    3.8971    0.0000 C   0  0  0  0  0  0  0  0  0  0  0  0
    0.7500    3.8971    0.0000 N   0  0  0  0  0  0  0  0  0  0  0  0
    1.5000    5.1962    0.0000 R   0  0  0  0  0  1  0  0  0  1  0  0
   -1.5000    5.1962    0.0000 C   0  0  0  0  0  0  0  0  0  0  0  0
   -3.0000    5.1962    0.0000 O   0  0  0  0  0  0  0  0  0  0  0  0
   -0.7500    6.4952    0.0000 R   0  0  0  0  0  1  0  0  0  2  0  0
    0.7500    1.2990    0.0000 C   0  0  0  0  0  0  0  0  0  0  0  0
  1  2  1  0
  2  3  1  0
  3  4  2  0
  4  5  1  0
  5  6  2  0
  6  7  1  0
  7  8  1  0
  9  8  1  6
  9 10  1  0
 10 11  1  0
  9 12  1  0
 12 13  2  0
 12 14  1  0
  7 15  2  0
 15  3  1  0
M  END
>  <id>  (3) 
7cf4aa5f-e645-4493-8c01-739782c7dc5f

>  <Version>  (3) 
0

>  <Alias>  (3) 
D-3MeOPhe

>  <Type>  (3) 
amino_acid

>  <Smiles>  (3) 
COc1cccc(C[C@@H](N[*:1])C(=O)[*:2])c1

>  <ProtectedSmiles>  (3) 
COc1cccc(C[C@@H](NC(=O)OCC2c3ccccc3-c3ccccc32)C(=O)O)c1

>  <CAS>  (3) 
917099-04-8

>  <User>  (3) 
Sevan.habeshian@orbismedicines.com

>  <StereoComment>  (3) 
as drawn

>  <Name>  (3) 
N/A

>  <Code>  (3) 
D-3MeOPhe

>  <AliasLowerCase>  (3) 
d-3meophe

>  <LatestVersion>  (3) 
0.0

>  <createdAt>  (3) 
2026-02-13T09:56:35.503Z

>  <updatedAt>  (3) 
2026-02-13T09:56:35.503Z

>  <NumRotatableBonds>  (3) 
5

>  <is_N_methyl>  (3) 
False

>  <is_a_methyl>  (3) 
False

>  <is_alpha_aa>  (3) 
True

>  <is_beta_aa>  (3) 
False

>  <is_S100_aa>  (3) 
False

>  <Murcko_SMILES>  (3) 
c1ccccc1

$$$$

     RDKit          2D

 14 14  0  0  0  0  0  0  0  0999 V2000
    6.0000    0.0000    0.0000 O   0  0  0  0  0  0  0  0  0  0  0  0
    5.2500   -1.2990    0.0000 C   0  0  0  0  0  0  0  0  0  0  0  0
    3.7500   -1.2990    0.0000 C   0  0  0  0  0  0  0  0  0  0  0  0
    3.0000    0.0000    0.0000 C   0  0  0  0  0  0  0  0  0  0  0  0
    1.5000    0.0000    0.0000 C   0  0  0  0  0  0  0  0  0  0  0  0
    0.7500   -1.2990    0.0000 C   0  0  0  0  0  0  0  0  0  0  0  0
   -0.7500   -1.2990    0.0000 C   0  0  0  0  0  0  0  0  0  0  0  0
   -1.5000    0.0000    0.0000 C   0  0  0  0  0  0  0  0  0  0  0  0
   -0.7500    1.2990    0.0000 C   0  0  0  0  0  0  0  0  0  0  0  0
    0.7500    1.2990    0.0000 C   0  0  0  0  0  0  0  0  0  0  0  0
    1.5000    2.5981    0.0000 Cl  0  0  0  0  0  0  0  0  0  0  0  0
    3.0000   -2.5981    0.0000 N   0  0  0  0  0  0  0  0  0  0  0  0
    3.7500   -3.8971    0.0000 R   0  0  0  0  0  1  0  0  0  1  0  0
    6.0000   -2.5981    0.0000 R   0  0  0  0  0  1  0  0  0  2  0  0
  1  2  2  0
  2  3  1  0
  3  4  1  1
  4  5  1  0
  5  6  2  0
  6  7  1  0
  7  8  2  0
  8  9  1  0
  9 10  2  0
 10 11  1  0
  3 12  1  0
 12 13  1  0
  2 14  1  0
 10  5  1  0
M  END
>  <id>  (4) 
8cf21705-e2d0-462a-af04-d13a7092df44

>  <Version>  (4) 
0

>  <Alias>  (4) 
2ClPhe

>  <Type>  (4) 
amino_acid

>  <Smiles>  (4) 
O=C([C@H](Cc1ccccc1Cl)N[*:1])[*:2]

>  <ProtectedSmiles>  (4) 
O=C(N[C@@H](Cc1ccccc1Cl)C(=O)O)OCC1c2ccccc2-c2ccccc21

>  <CAS>  (4) 
198560-41-7

>  <User>  (4) 
angelica.l

>  <StereoComment>  (4) 
as drawn

>  <Name>  (4) 
Fmoc-L-2-chloroPhe-OH

>  <Code>  (4) 
2ClPhe

>  <AliasLowerCase>  (4) 
2clphe

>  <LatestVersion>  (4) 
0.0

>  <createdAt>  (4) 
2026-01-14T11:36:13.975Z

>  <updatedAt>  (4) 
2026-01-14T11:36:13.975Z

>  <NumRotatableBonds>  (4) 
4

>  <is_N_methyl>  (4) 
False

>  <is_a_methyl>  (4) 
False

>  <is_alpha_aa>  (4) 
True

>  <is_beta_aa>  (4) 
False

>  <is_S100_aa>  (4) 
False

>  <Murcko_SMILES>  (4) 
c1ccccc1

$$$$

     RDKit          2D

 13 13  0  0  0  0  0  0  0  0999 V2000
    6.0000    0.0000    0.0000 O   0  0  0  0  0  0  0  0  0  0  0  0
    5.2500   -1.2990    0.0000 C   0  0  0  0  0  0  0  0  0  0  0  0
    3.7500   -1.2990    0.0000 C   0  0  0  0  0  0  0  0  0  0  0  0
    3.0000    0.0000    0.0000 C   0  0  0  0  0  0  0  0  0  0  0  0
    1.5000    0.0000    0.0000 C   0  0  0  0  0  0  0  0  0  0  0  0
    0.7500   -1.2990    0.0000 C   0  0  0  0  0  0  0  0  0  0  0  0
   -0.7500   -1.2990    0.0000 C   0  0  0  0  0  0  0  0  0  0  0  0
   -1.5000    0.0000    0.0000 N   0  0  0  0  0  0  0  0  0  0  0  0
   -0.7500    1.2990    0.0000 C   0  0  0  0  0  0  0  0  0  0  0  0
    0.7500    1.2990    0.0000 N   0  0  0  0  0  0  0  0  0  0  0  0
    3.0000   -2.5981    0.0000 N   0  0  0  0  0  0  0  0  0  0  0  0
    3.7500   -3.8971    0.0000 R   0  0  0  0  0  1  0  0  0  1  0  0
    6.0000   -2.5981    0.0000 R   0  0  0  0  0  1  0  0  0  2  0  0
  1  2  2  0
  2  3  1  0
  3  4  1  0
  4  5  1  0
  5  6  2  0
  6  7  1  0
  7  8  2  0
  8  9  1  0
  9 10  2  0
  3 11  1  0
 11 12  1  0
  2 13  1  0
 10  5  1  0
M  END
>  <id>  (5) 
39b28881-1f63-41a7-a132-6a01ea070390

>  <Version>  (5) 
0

>  <Alias>  (5) 
rac-4PyrimAla

>  <Type>  (5) 
amino_acid

>  <Smiles>  (5) 
O=C(C(Cc1ccncn1)N[*:1])[*:2]

>  <ProtectedSmiles>  (5) 
O=C(NC(Cc1ccncn1)C(=O)O)OCC1c2ccccc2-c2ccccc21

>  <CAS>  (5) 
1691032-13-9

>  <User>  (5) 
Sevan.habeshian@orbismedicines.com

>  <StereoComment>  (5) 
as drawn

>  <Name>  (5) 
N/A

>  <Code>  (5) 
rac-4PyrimAla

>  <AliasLowerCase>  (5) 
rac-4pyrimala

>  <LatestVersion>  (5) 
0.0

>  <createdAt>  (5) 
2026-02-13T09:56:35.392Z

>  <updatedAt>  (5) 
2026-02-13T09:56:35.392Z

>  <NumRotatableBonds>  (5) 
4

>  <is_N_methyl>  (5) 
False

>  <is_a_methyl>  (5) 
False

>  <is_alpha_aa>  (5) 
True

>  <is_beta_aa>  (5) 
False

>  <is_S100_aa>  (5) 
False

>  <Murcko_SMILES>  (5) 
c1cncnc1

$$$$

     RDKit          2D

 10 10  0  0  0  0  0  0  0  0999 V2000
    3.5260    1.2990    0.0000 O   0  0  0  0  0  0  0  0  0  0  0  0
    2.7760    0.0000    0.0000 C   0  0  0  0  0  0  0  0  0  0  0  0
    1.2760    0.0000    0.0000 C   0  0  0  0  0  0  0  0  0  0  0  0
    0.3943    1.2135    0.0000 C   0  0  0  0  0  0  0  0  0  0  0  0
    0.8578    2.6401    0.0000 O   0  0  0  0  0  0  0  0  0  0  0  0
   -1.0323    0.7500    0.0000 C   0  0  0  0  0  0  0  0  0  0  0  0
   -1.0323   -0.7500    0.0000 C   0  0  0  0  0  0  0  0  0  0  0  0
    0.3943   -1.2135    0.0000 N   0  0  0  0  0  0  0  0  0  0  0  0
    0.8578   -2.6401    0.0000 R   0  0  0  0  0  1  0  0  0  1  0  0
    3.5260   -1.2990    0.0000 R   0  0  0  0  0  1  0  0  0  2  0  0
  1  2  2  0
  3  2  1  1
  3  4  1  0
  4  5  1  6
  4  6  1  0
  6  7  1  0
  7  8  1  0
  8  9  1  0
  2 10  1  0
  8  3  1  0
M  END
>  <id>  (6) 
15651581-5018-401a-92d5-a73cfe178a7f

>  <Version>  (6) 
0

>  <Alias>  (6) 
Pro(3S-OH)

>  <Type>  (6) 
amino_acid

>  <Smiles>  (6) 
O=C([C@@H]1[C@@H](O)CCN1[*:1])[*:2]

>  <ProtectedSmiles>  (6) 
O=C(O)[C@@H]1[C@@H](O)CCN1C(=O)OCC1c2ccccc2-c2ccccc21

>  <CAS>  (6) 
296774-32-8

>  <User>  (6) 
angelica.l

>  <StereoComment>  (6) 
as drawn

>  <Name>  (6) 
(2S,3S)-1-Fmoc-3-hydroxypyrrolidine-2-carboxylic acid

>  <Code>  (6) 
Pro(3S-OH)

>  <AliasLowerCase>  (6) 
pro(3s-oh)

>  <LatestVersion>  (6) 
0.0

>  <createdAt>  (6) 
2026-01-14T11:36:41.613Z

>  <updatedAt>  (6) 
2026-01-14T11:36:41.613Z

>  <NumRotatableBonds>  (6) 
1

>  <is_N_methyl>  (6) 
False

>  <is_a_methyl>  (6) 
False

>  <is_alpha_aa>  (6) 
True

>  <is_beta_aa>  (6) 
False

>  <is_S100_aa>  (6) 
False

>  <Murcko_SMILES>  (6) 
C1CCNC1

$$$$

     RDKit          2D

 13 12  0  0  0  0  0  0  0  0999 V2000
   10.3923   -0.0000    0.0000 N   0  0  0  0  0  0  0  0  0  0  0  0
    9.0933    0.7500    0.0000 C   0  0  0  0  0  0  0  0  0  0  0  0
    9.0933    2.2500    0.0000 O   0  0  0  0  0  0  0  0  0  0  0  0
    7.7942   -0.0000    0.0000 N   0  0  0  0  0  0  0  0  0  0  0  0
    6.4952    0.7500    0.0000 C   0  0  0  0  0  0  0  0  0  0  0  0
    5.1962   -0.0000    0.0000 C   0  0  0  0  0  0  0  0  0  0  0  0
    3.8971    0.7500    0.0000 C   0  0  0  0  0  0  0  0  0  0  0  0
    2.5981   -0.0000    0.0000 C   0  0  0  0  0  0  0  0  0  0  0  0
    1.2990    0.7500    0.0000 N   0  0  0  0  0  0  0  0  0  0  0  0
    0.0000    0.0000    0.0000 R   0  0  0  0  0  1  0  0  0  1  0  0
    2.5981   -1.5000    0.0000 C   0  0  0  0  0  0  0  0  0  0  0  0
    1.2990   -2.2500    0.0000 O   0  0  0  0  0  0  0  0  0  0  0  0
    3.8971   -2.2500    0.0000 R   0  0  0  0  0  1  0  0  0  2  0  0
  1  2  1  0
  2  3  2  0
  2  4  1  0
  4  5  1  0
  5  6  1  0
  6  7  1  0
  8  7  1  1
  8  9  1  0
  9 10  1  0
  8 11  1  0
 11 12  2  0
 11 13  1  0
M  END
>  <id>  (7) 
e94e8116-587a-4a24-97ac-a71fef347e7d

>  <Version>  (7) 
0

>  <Alias>  (7) 
Cit

>  <Type>  (7) 
amino_acid

>  <Smiles>  (7) 
NC(=O)NCCC[C@H](N[*:1])C(=O)[*:2]

>  <ProtectedSmiles>  (7) 
NC(=O)NCCC[C@H](NC(=O)OCC1c2ccccc2-c2ccccc21)C(=O)O

>  <CAS>  (7) 
133174-15-9

>  <User>  (7) 
clement.gensous@orbismedicines.com

>  <StereoComment>  (7) 
as drawn

>  <Name>  (7) 
Cit

>  <Code>  (7) 
Cit

>  <AliasLowerCase>  (7) 
cit

>  <LatestVersion>  (7) 
0.0

>  <createdAt>  (7) 
2026-01-15T09:28:37.721Z

>  <updatedAt>  (7) 
2026-01-15T09:28:37.721Z

>  <NumRotatableBonds>  (7) 
6

>  <is_N_methyl>  (7) 
False

>  <is_a_methyl>  (7) 
False

>  <is_alpha_aa>  (7) 
True

>  <is_beta_aa>  (7) 
False

>  <is_S100_aa>  (7) 
False

>  <Murcko_SMILES>  (7) 


$$$$

     RDKit          2D

 12 12  0  0  0  0  0  0  0  0999 V2000
    3.0000   -2.5981    0.0000 O   0  0  0  0  0  0  0  0  0  0  0  0
    3.7500   -1.2990    0.0000 C   0  0  0  0  0  0  0  0  0  0  0  0
    3.0000    0.0000    0.0000 C   0  0  0  0  0  0  0  0  0  0  0  0
    3.7500    1.2990    0.0000 N   0  0  0  0  0  0  0  0  0  0  0  0
    5.2500    1.2990    0.0000 R   0  0  0  0  0  1  0  0  0  1  0  0
    1.5000    0.0000    0.0000 C   0  0  0  0  0  0  0  0  0  0  0  0
    0.7500   -1.2990    0.0000 C   0  0  0  0  0  0  0  0  0  0  0  0
   -0.7500   -1.2990    0.0000 C   0  0  0  0  0  0  0  0  0  0  0  0
   -1.5000    0.0000    0.0000 C   0  0  0  0  0  0  0  0  0  0  0  0
   -0.7500    1.2990    0.0000 C   0  0  0  0  0  0  0  0  0  0  0  0
    0.7500    1.2990    0.0000 C   0  0  0  0  0  0  0  0  0  0  0  0
    5.2500   -1.2990    0.0000 R   0  0  0  0  0  1  0  0  0  2  0  0
  1  2  2  0
  2  3  1  0
  3  4  1  6
  4  5  1  0
  3  6  1  0
  6  7  2  0
  7  8  1  0
  8  9  2  0
  9 10  1  0
 10 11  2  0
  2 12  1  0
 11  6  1  0
M  END
>  <id>  (8) 
24030d5d-3a8c-44ef-bfbd-dc013bf09890

>  <Version>  (8) 
0

>  <Alias>  (8) 
Phg

>  <Type>  (8) 
amino_acid

>  <Smiles>  (8) 
O=C([C@@H](N[*:1])c1ccccc1)[*:2]

>  <ProtectedSmiles>  (8) 
O=C(N[C@H](C(=O)O)c1ccccc1)OCC1c2ccccc2-c2ccccc21

>  <CAS>  (8) 
102410-65-1

>  <User>  (8) 
sevan.h

>  <StereoComment>  (8) 
as drawn

>  <Name>  (8) 
Fmoc-Phg-OH

>  <Code>  (8) 
Phg

>  <AliasLowerCase>  (8) 
phg

>  <LatestVersion>  (8) 
0.0

>  <createdAt>  (8) 
2026-01-14T12:15:06.217Z

>  <updatedAt>  (8) 
2026-01-14T12:15:06.217Z

>  <NumRotatableBonds>  (8) 
3

>  <is_N_methyl>  (8) 
False

>  <is_a_methyl>  (8) 
False

>  <is_alpha_aa>  (8) 
True

>  <is_beta_aa>  (8) 
False

>  <is_S100_aa>  (8) 
False

>  <Murcko_SMILES>  (8) 
c1ccccc1

$$$$

     RDKit          2D

 15 16  0  0  0  0  0  0  0  0999 V2000
    3.0613   -7.3456    0.0000 O   0  0  0  0  0  0  0  0  0  0  0  0
    1.8478   -6.4639    0.0000 C   0  0  0  0  0  0  0  0  0  0  0  0
    2.0046   -4.9721    0.0000 C   0  0  0  0  0  0  0  0  0  0  0  0
    3.3037   -4.2221    0.0000 C   0  0  0  0  0  0  0  0  0  0  0  0
    2.9918   -2.7549    0.0000 S   0  0  0  0  0  0  0  0  0  0  0  0
    1.5000   -2.5981    0.0000 C   0  0  0  0  0  0  0  0  0  0  0  0
    0.7500   -1.2990    0.0000 C   0  0  0  0  0  0  0  0  0  0  0  0
    1.5000    0.0000    0.0000 C   0  0  0  0  0  0  0  0  0  0  0  0
    0.7500    1.2990    0.0000 C   0  0  0  0  0  0  0  0  0  0  0  0
   -0.7500    1.2990    0.0000 C   0  0  0  0  0  0  0  0  0  0  0  0
   -1.5000    0.0000    0.0000 N   0  0  0  0  0  0  0  0  0  0  0  0
   -3.0000    0.0000    0.0000 R   0  0  0  0  0  1  0  0  0  1  0  0
   -0.7500   -1.2990    0.0000 C   0  0  0  0  0  0  0  0  0  0  0  0
    0.8899   -3.9684    0.0000 N   0  0  0  0  0  0  0  0  0  0  0  0
    0.4775   -7.0740    0.0000 R   0  0  0  0  0  1  0  0  0  2  0  0
  1  2  2  0
  2  3  1  0
  3  4  2  0
  4  5  1  0
  5  6  1  0
  6  7  1  0
  7  8  1  0
  8  9  1  0
  9 10  1  0
 10 11  1  0
 11 12  1  0
 11 13  1  0
  6 14  2  0
  2 15  1  0
 14  3  1  0
 13  7  1  0
M  END
>  <id>  (9) 
dd9084eb-8ac7-4047-8b22-8d6faf1cd9f1

>  <Version>  (9) 
0

>  <Alias>  (9) 
PipTzaCA

>  <Type>  (9) 
amino_acid

>  <Smiles>  (9) 
O=C(c1csc(C2CCCN([*:1])C2)n1)[*:2]

>  <ProtectedSmiles>  (9) 
O=C(O)c1csc(C2CCCN(C(=O)OCC3c4ccccc4-c4ccccc43)C2)n1

>  <CAS>  (9) 
2172256-49-2

>  <User>  (9) 
Sevan.habeshian@orbismedicines.com

>  <StereoComment>  (9) 
as drawn

>  <Name>  (9) 
N/A

>  <Code>  (9) 
PipTzaCA

>  <AliasLowerCase>  (9) 
piptzaca

>  <LatestVersion>  (9) 
0.0

>  <createdAt>  (9) 
2026-02-13T09:56:36.365Z

>  <updatedAt>  (9) 
2026-02-13T09:56:36.365Z

>  <NumRotatableBonds>  (9) 
2

>  <is_N_methyl>  (9) 
False

>  <is_a_methyl>  (9) 
False

>  <is_alpha_aa>  (9) 
False

>  <is_beta_aa>  (9) 
False

>  <is_S100_aa>  (9) 
False

>  <Murcko_SMILES>  (9) 
c1csc(C2CCCNC2)n1

$$$$

     RDKit          2D

 15 16  0  0  0  0  0  0  0  0999 V2000
    3.5898   -0.7046    0.0000 O   0  0  0  0  0  0  0  0  0  0  0  0
    3.1476   -2.1380    0.0000 C   0  0  0  0  0  0  0  0  0  0  0  0
    1.6852   -2.4718    0.0000 C   0  0  0  0  0  0  0  0  0  0  0  0
    0.7500   -1.2990    0.0000 C   0  0  0  0  0  0  0  0  0  0  0  0
    1.5000    0.0000    0.0000 C   0  0  0  0  0  0  0  0  0  0  0  0
    0.7500    1.2990    0.0000 C   0  0  0  0  0  0  0  0  0  0  0  0
   -0.7500    1.2990    0.0000 C   0  0  0  0  0  0  0  0  0  0  0  0
   -1.5000    0.0000    0.0000 C   0  0  0  0  0  0  0  0  0  0  0  0
   -0.7500   -1.2990    0.0000 C   0  0  0  0  0  0  0  0  0  0  0  0
   -1.6852   -2.4718    0.0000 O   0  0  0  0  0  0  0  0  0  0  0  0
   -1.3515   -3.9342    0.0000 C   0  0  0  0  0  0  0  0  0  0  0  0
   -0.0000   -4.5850    0.0000 C   0  0  0  0  0  0  0  0  0  0  0  0
    1.3515   -3.9342    0.0000 N   0  0  0  0  0  0  0  0  0  0  0  0
    2.5242   -4.8694    0.0000 R   0  0  0  0  0  1  0  0  0  1  0  0
    4.1679   -3.2376    0.0000 R   0  0  0  0  0  1  0  0  0  2  0  0
  1  2  2  0
  2  3  1  0
  3  4  1  0
  4  5  2  0
  5  6  1  0
  6  7  2  0
  7  8  1  0
  8  9  2  0
  9 10  1  0
 10 11  1  0
 11 12  1  0
 12 13  1  0
 13 14  1  0
  2 15  1  0
 13  3  1  0
  9  4  1  0
M  END
>  <id>  (10) 
03367171-f9c9-4a11-ab04-8cfac87f0457

>  <Version>  (10) 
0

>  <Alias>  (10) 
BenzOxCA

>  <Type>  (10) 
amino_acid

>  <Smiles>  (10) 
O=C(C1c2ccccc2OCCN1[*:1])[*:2]

>  <ProtectedSmiles>  (10) 
O=C(O)C1c2ccccc2OCCN1C(=O)OCC1c2ccccc2-c2ccccc21

>  <CAS>  (10) 
2137514-33-9

>  <User>  (10) 
Sevan.habeshian@orbismedicines.com

>  <StereoComment>  (10) 
as drawn

>  <Name>  (10) 
N/A

>  <Code>  (10) 
BenzOxCA

>  <AliasLowerCase>  (10) 
benzoxca

>  <LatestVersion>  (10) 
0.0

>  <createdAt>  (10) 
2026-02-13T09:56:36.392Z

>  <updatedAt>  (10) 
2026-02-13T09:56:36.392Z

>  <NumRotatableBonds>  (10) 
1

>  <is_N_methyl>  (10) 
False

>  <is_a_methyl>  (10) 
False

>  <is_alpha_aa>  (10) 
True

>  <is_beta_aa>  (10) 
False

>  <is_S100_aa>  (10) 
False

>  <Murcko_SMILES>  (10) 
c1ccc2c(c1)CNCCO2

$$$$

     RDKit          2D

 10 10  0  0  0  0  0  0  0  0999 V2000
    3.5260    1.2990    0.0000 O   0  0  0  0  0  0  0  0  0  0  0  0
    2.7760    0.0000    0.0000 C   0  0  0  0  0  0  0  0  0  0  0  0
    1.2760    0.0000    0.0000 C   0  0  0  0  0  0  0  0  0  0  0  0
    0.3943    1.2135    0.0000 C   0  0  0  0  0  0  0  0  0  0  0  0
   -1.0323    0.7500    0.0000 C   0  0  0  0  0  0  0  0  0  0  0  0
   -2.2458    1.6317    0.0000 O   0  0  0  0  0  0  0  0  0  0  0  0
   -1.0323   -0.7500    0.0000 C   0  0  0  0  0  0  0  0  0  0  0  0
    0.3943   -1.2135    0.0000 N   0  0  0  0  0  0  0  0  0  0  0  0
    0.8578   -2.6401    0.0000 R   0  0  0  0  0  1  0  0  0  1  0  0
    3.5260   -1.2990    0.0000 R   0  0  0  0  0  1  0  0  0  2  0  0
  1  2  2  0
  3  2  1  6
  3  4  1  0
  4  5  1  0
  5  6  1  6
  5  7  1  0
  7  8  1  0
  8  9  1  0
  2 10  1  0
  8  3  1  0
M  END
>  <id>  (11) 
65c02241-31ec-4e74-890a-2b1bc2a43380

>  <Version>  (11) 
0

>  <Alias>  (11) 
D-Hyp_UP

>  <Type>  (11) 
amino_acid

>  <Smiles>  (11) 
O=C([C@H]1C[C@@H](O)CN1[*:1])[*:2]

>  <ProtectedSmiles>  (11) 
O=C(O)[C@H]1C[C@@H](O)CN1C(=O)OCC1c2ccccc2-c2ccccc21

>  <CAS>  (11) 
214852-45-6

>  <User>  (11) 
Sevan.habeshian@orbismedicines.com

>  <StereoComment>  (11) 
as drawn

>  <Name>  (11) 
N/A

>  <Code>  (11) 
D-Hyp_UP

>  <AliasLowerCase>  (11) 
d-hyp_up

>  <LatestVersion>  (11) 
0.0

>  <createdAt>  (11) 
2026-02-13T09:56:35.471Z

>  <updatedAt>  (11) 
2026-02-13T09:56:35.471Z

>  <NumRotatableBonds>  (11) 
1

>  <is_N_methyl>  (11) 
False

>  <is_a_methyl>  (11) 
False

>  <is_alpha_aa>  (11) 
True

>  <is_beta_aa>  (11) 
False

>  <is_S100_aa>  (11) 
False

>  <Murcko_SMILES>  (11) 
C1CCNC1

$$$$

     RDKit          2D

 10 11  0  0  0  0  0  0  0  0999 V2000
   -2.6512    3.9557    0.0000 O   0  0  0  0  0  0  0  0  0  0  0  0
   -1.1839    3.6438    0.0000 C   0  0  0  0  0  0  0  0  0  0  0  0
   -0.7204    2.2172    0.0000 C   0  0  0  0  0  0  0  0  0  0  0  0
    0.3943    1.2135    0.0000 C   0  0  0  0  0  0  0  0  0  0  0  0
    1.2760    0.0000    0.0000 C   0  0  0  0  0  0  0  0  0  0  0  0
    0.3943   -1.2135    0.0000 N   0  0  0  0  0  0  0  0  0  0  0  0
    0.8578   -2.6401    0.0000 R   0  0  0  0  0  1  0  0  0  1  0  0
   -1.0323   -0.7500    0.0000 C   0  0  0  0  0  0  0  0  0  0  0  0
   -1.0323    0.7500    0.0000 C   0  0  0  0  0  0  0  0  0  0  0  0
   -0.1802    4.7585    0.0000 R   0  0  0  0  0  1  0  0  0  2  0  0
  1  2  2  0
  3  2  1  1
  3  4  1  0
  4  5  1  6
  5  6  1  0
  6  7  1  0
  6  8  1  0
  9  8  1  6
  2 10  1  0
  9  3  1  0
  9  4  1  0
M  END
>  <id>  (12) 
f199789d-95b8-4760-8708-07afcad1c2d8

>  <Version>  (12) 
0

>  <Alias>  (12) 
(1R,5S,6R)AzaBCHCA

>  <Type>  (12) 
amino_acid

>  <Smiles>  (12) 
O=C([C@H]1[C@@H]2CN([*:1])C[C@@H]21)[*:2]

>  <ProtectedSmiles>  (12) 
O=C(O)[C@H]1[C@@H]2CN(C(=O)OCC3c4ccccc4-c4ccccc43)C[C@@H]21

>  <CAS>  (12) 
1932558-35-4

>  <User>  (12) 
Sevan.habeshian@orbismedicines.com

>  <StereoComment>  (12) 
as drawn

>  <Name>  (12) 
N/A

>  <Code>  (12) 
(1R,5S,6R)AzaBCHCA

>  <AliasLowerCase>  (12) 
(1r,5s,6r)azabchca

>  <LatestVersion>  (12) 
0.0

>  <createdAt>  (12) 
2026-02-13T09:56:35.394Z

>  <updatedAt>  (12) 
2026-02-13T09:56:35.394Z

>  <NumRotatableBonds>  (12) 
1

>  <is_N_methyl>  (12) 
False

>  <is_a_methyl>  (12) 
False

>  <is_alpha_aa>  (12) 
False

>  <is_beta_aa>  (12) 
False

>  <is_S100_aa>  (12) 
False

>  <Murcko_SMILES>  (12) 
C1NC[C@H]2C[C@@H]12

$$$$

     RDKit          2D

 13 14  0  0  0  0  0  0  0  0999 V2000
   -1.5364    5.3790    0.0000 O   0  0  0  0  0  0  0  0  0  0  0  0
   -0.0692    5.0672    0.0000 C   0  0  0  0  0  0  0  0  0  0  0  0
    0.3943    3.6406    0.0000 C   0  0  0  0  0  0  0  0  0  0  0  0
   -0.4874    2.4271    0.0000 C   0  0  0  0  0  0  0  0  0  0  0  0
    0.3943    1.2135    0.0000 C   0  0  0  0  0  0  0  0  0  0  0  0
    1.2760    0.0000    0.0000 C   0  0  0  0  0  0  0  0  0  0  0  0
    0.3943   -1.2135    0.0000 C   0  0  0  0  0  0  0  0  0  0  0  0
   -1.0323   -0.7500    0.0000 C   0  0  0  0  0  0  0  0  0  0  0  0
   -1.0323    0.7500    0.0000 C   0  0  0  0  0  0  0  0  0  0  0  0
    1.8209    1.6771    0.0000 C   0  0  0  0  0  0  0  0  0  0  0  0
    1.8209    3.1771    0.0000 N   0  0  0  0  0  0  0  0  0  0  0  0
    3.0344    4.0587    0.0000 R   0  0  0  0  0  1  0  0  0  1  0  0
    0.9345    6.1819    0.0000 R   0  0  0  0  0  1  0  0  0  2  0  0
  1  2  2  0
  2  3  1  0
  3  4  1  0
  4  5  1  0
  5  6  1  0
  6  7  1  0
  7  8  1  0
  8  9  1  0
  5 10  1  0
 10 11  1  0
 11 12  1  0
  2 13  1  0
 11  3  1  0
  9  5  1  0
M  END
>  <id>  (13) 
0b2b9847-a88f-44ef-90ee-e3c5358d3ed2

>  <Version>  (13) 
0

>  <Alias>  (13) 
2azaSpiroNon

>  <Type>  (13) 
amino_acid

>  <Smiles>  (13) 
O=C(C1CC2(CCCC2)CN1[*:1])[*:2]

>  <ProtectedSmiles>  (13) 
O=C(O)C1CC2(CCCC2)CN1C(=O)OCC1c2ccccc2-c2ccccc21

>  <CAS>  (13) 
2243509-45-5

>  <User>  (13) 
alice.granger@orbismedicines.com

>  <StereoComment>  (13) 
as drawn

>  <Name>  (13) 
2-{[(9H-fluoren-9-yl)methoxy]carbonyl}-2-azaspiro[4.4]nonane-3-carboxylic acid

>  <Code>  (13) 
2azaSpiroNon

>  <AliasLowerCase>  (13) 
2azaspironon

>  <LatestVersion>  (13) 
0.0

>  <createdAt>  (13) 
2026-03-11T10:37:04.557Z

>  <updatedAt>  (13) 
2026-03-11T10:37:04.557Z

>  <NumRotatableBonds>  (13) 
1

>  <is_N_methyl>  (13) 
False

>  <is_a_methyl>  (13) 
False

>  <is_alpha_aa>  (13) 
True

>  <is_beta_aa>  (13) 
False

>  <is_S100_aa>  (13) 
False

>  <Murcko_SMILES>  (13) 
C1CCC2(C1)CCNC2

$$$$

     RDKit          2D

 14 14  0  0  0  0  0  0  0  0999 V2000
    2.7760    0.0000    0.0000 C   0  0  0  0  0  0  0  0  0  0  0  0
    1.2760    0.0000    0.0000 C   0  0  0  0  0  0  0  0  0  0  0  0
    0.3943    1.2135    0.0000 C   0  0  0  0  0  0  0  0  0  0  0  0
    0.8578    2.6401    0.0000 C   0  0  0  0  0  0  0  0  0  0  0  0
    2.3250    2.9520    0.0000 C   0  0  0  0  0  0  0  0  0  0  0  0
    3.3287    1.8373    0.0000 N   0  0  0  0  0  0  0  0  0  0  0  0
    4.7960    2.1491    0.0000 R   0  0  0  0  0  1  0  0  0  1  0  0
    2.7886    4.3786    0.0000 C   0  0  0  0  0  0  0  0  0  0  0  0
    1.7849    5.4933    0.0000 O   0  0  0  0  0  0  0  0  0  0  0  0
    4.2558    4.6904    0.0000 R   0  0  0  0  0  1  0  0  0  2  0  0
   -1.0323    0.7500    0.0000 C   0  0  0  0  0  0  0  0  0  0  0  0
   -1.0323   -0.7500    0.0000 N   0  0  0  0  0  0  0  0  0  0  0  0
    0.3943   -1.2135    0.0000 N   0  0  0  0  0  0  0  0  0  0  0  0
    0.8578   -2.6401    0.0000 C   0  0  0  0  0  0  0  0  0  0  0  0
  1  2  1  0
  2  3  2  0
  3  4  1  0
  4  5  1  0
  5  6  1  0
  6  7  1  0
  5  8  1  0
  8  9  2  0
  8 10  1  0
  3 11  1  0
 11 12  2  0
 12 13  1  0
 13 14  1  0
 13  2  1  0
M  END
>  <id>  (14) 
5d3bd278-cad2-45cf-b517-5e77442a741f

>  <Version>  (14) 
0

>  <Alias>  (14) 
rac1,5MePrz

>  <Type>  (14) 
amino_acid

>  <Smiles>  (14) 
Cc1c(CC(N[*:1])C(=O)[*:2])cnn1C

>  <ProtectedSmiles>  (14) 
Cc1c(CC(NC(=O)OCC2c3ccccc3-c3ccccc32)C(=O)O)cnn1C

>  <CAS>  (14) 
1379843-85-2

>  <User>  (14) 
Sevan.habeshian@orbismedicines.com

>  <StereoComment>  (14) 
as drawn

>  <Name>  (14) 
N/A

>  <Code>  (14) 
rac1,5MePrz

>  <AliasLowerCase>  (14) 
rac1,5meprz

>  <LatestVersion>  (14) 
0.0

>  <createdAt>  (14) 
2026-02-13T09:56:35.397Z

>  <updatedAt>  (14) 
2026-02-13T09:56:35.397Z

>  <NumRotatableBonds>  (14) 
4

>  <is_N_methyl>  (14) 
False

>  <is_a_methyl>  (14) 
False

>  <is_alpha_aa>  (14) 
True

>  <is_beta_aa>  (14) 
False

>  <is_S100_aa>  (14) 
False

>  <Murcko_SMILES>  (14) 
c1cn[nH]c1

$$$$

     RDKit          2D

 13 13  0  0  0  0  0  0  0  0999 V2000
    3.0000    0.0000    0.0000 O   0  0  0  0  0  0  0  0  0  0  0  0
    1.5000    0.0000    0.0000 C   0  0  0  0  0  0  0  0  0  0  0  0
    0.7500   -1.2990    0.0000 C   0  0  0  0  0  0  0  0  0  0  0  0
    1.5000   -2.5981    0.0000 N   0  0  0  0  0  0  0  0  0  0  0  0
    0.7500   -3.8971    0.0000 R   0  0  0  0  0  1  0  0  0  1  0  0
   -0.7500   -1.2990    0.0000 C   0  0  0  0  0  0  0  0  0  0  0  0
   -1.5000    0.0000    0.0000 C   0  0  0  0  0  0  0  0  0  0  0  0
   -0.7500    1.2990    0.0000 C   0  0  0  0  0  0  0  0  0  0  0  0
    0.7500    1.2990    0.0000 N   0  0  0  0  0  0  0  0  0  0  0  0
    1.5000    2.5981    0.0000 C   0  0  0  0  0  0  0  0  0  0  0  0
    0.7500    3.8971    0.0000 C   0  0  0  0  0  0  0  0  0  0  0  0
   -0.7500    3.8971    0.0000 O   0  0  0  0  0  0  0  0  0  0  0  0
    1.5000    5.1962    0.0000 R   0  0  0  0  0  1  0  0  0  2  0  0
  1  2  2  0
  2  3  1  0
  3  4  1  0
  4  5  1  0
  3  6  1  0
  6  7  1  0
  7  8  1  0
  8  9  1  0
  9 10  1  0
 10 11  1  0
 11 12  2  0
 11 13  1  0
  9  2  1  0
M  END
>  <id>  (15) 
50ccb89b-2e72-49f4-883a-5c80f927b7af

>  <Version>  (15) 
0

>  <Alias>  (15) 
rac-AminoOxopip

>  <Type>  (15) 
amino_acid

>  <Smiles>  (15) 
O=C1C(N[*:1])CCCN1CC(=O)[*:2]

>  <ProtectedSmiles>  (15) 
O=C(O)CN1CCCC(NC(=O)OCC2c3ccccc3-c3ccccc32)C1=O

>  <CAS>  (15) 
209163-25-7

>  <User>  (15) 
Sevan.habeshian@orbismedicines.com

>  <StereoComment>  (15) 
as drawn

>  <Name>  (15) 
N/A

>  <Code>  (15) 
rac-AminoOxopip

>  <AliasLowerCase>  (15) 
rac-aminooxopip

>  <LatestVersion>  (15) 
0.0

>  <createdAt>  (15) 
2026-02-13T09:56:35.481Z

>  <updatedAt>  (15) 
2026-02-13T09:56:35.481Z

>  <NumRotatableBonds>  (15) 
3

>  <is_N_methyl>  (15) 
False

>  <is_a_methyl>  (15) 
False

>  <is_alpha_aa>  (15) 
False

>  <is_beta_aa>  (15) 
False

>  <is_S100_aa>  (15) 
False

>  <Murcko_SMILES>  (15) 
O=C1CCCCN1

$$$$

     RDKit          2D

 11 10  0  0  0  0  0  0  0  0999 V2000
    6.4952    2.2500    0.0000 O   0  0  0  0  0  0  0  0  0  0  0  0
    6.4952    0.7500    0.0000 C   0  0  0  0  0  0  0  0  0  0  0  0
    7.7942   -0.0000    0.0000 O   0  0  0  0  0  0  0  0  0  0  0  0
    5.1962   -0.0000    0.0000 C   0  0  0  0  0  0  0  0  0  0  0  0
    3.8971    0.7500    0.0000 C   0  0  0  0  0  0  0  0  0  0  0  0
    2.5981   -0.0000    0.0000 C   0  0  0  0  0  0  0  0  0  0  0  0
    1.2990    0.7500    0.0000 C   0  0  0  0  0  0  0  0  0  0  0  0
    1.2990    2.2500    0.0000 O   0  0  0  0  0  0  0  0  0  0  0  0
    0.0000    0.0000    0.0000 R   0  0  0  0  0  1  0  0  0  2  0  0
    5.1962   -1.5000    0.0000 N   0  0  0  0  0  0  0  0  0  0  0  0
    6.4952   -2.2500    0.0000 R   0  0  0  0  0  1  0  0  0  1  0  0
  1  2  2  0
  2  3  1  0
  2  4  1  0
  4  5  1  6
  5  6  1  0
  6  7  1  0
  7  8  2  0
  7  9  1  0
  4 10  1  0
 10 11  1  0
M  END
>  <id>  (16) 
62094513-66c3-49b5-8701-0e5e6df8c9e4

>  <Version>  (16) 
0

>  <Alias>  (16) 
D-GlutBu

>  <Type>  (16) 
amino_acid

>  <Smiles>  (16) 
O=C(O)[C@@H](CCC(=O)[*:2])N[*:1]

>  <ProtectedSmiles>  (16) 
CC(C)(C)OC(=O)[C@@H](CCC(=O)O)NC(=O)OCC1c2ccccc2-c2ccccc21

>  <CAS>  (16) 
109745-15-5

>  <User>  (16) 
sevan.h

>  <StereoComment>  (16) 
as drawn

>  <Name>  (16) 
Fmoc-D-Glu-OtBu

>  <Code>  (16) 
D-GlutBu

>  <AliasLowerCase>  (16) 
d-glutbu

>  <LatestVersion>  (16) 
0.0

>  <createdAt>  (16) 
2026-01-14T12:16:35.032Z

>  <updatedAt>  (16) 
2026-01-14T12:16:35.032Z

>  <NumRotatableBonds>  (16) 
5

>  <is_N_methyl>  (16) 
False

>  <is_a_methyl>  (16) 
False

>  <is_alpha_aa>  (16) 
False

>  <is_beta_aa>  (16) 
False

>  <is_S100_aa>  (16) 
False

>  <Murcko_SMILES>  (16) 


$$$$

     RDKit          2D

 13 14  0  0  0  0  0  0  0  0999 V2000
    1.2990   -5.8573    0.0000 O   0  0  0  0  0  0  0  0  0  0  0  0
   -0.0000   -5.1073    0.0000 C   0  0  0  0  0  0  0  0  0  0  0  0
   -0.0000   -3.6073    0.0000 C   0  0  0  0  0  0  0  0  0  0  0  0
    1.2135   -2.7256    0.0000 C   0  0  0  0  0  0  0  0  0  0  0  0
    0.7500   -1.2990    0.0000 C   0  0  0  0  0  0  0  0  0  0  0  0
    1.5000    0.0000    0.0000 C   0  0  0  0  0  0  0  0  0  0  0  0
    0.7500    1.2990    0.0000 C   0  0  0  0  0  0  0  0  0  0  0  0
   -0.7500    1.2990    0.0000 C   0  0  0  0  0  0  0  0  0  0  0  0
   -1.5000    0.0000    0.0000 C   0  0  0  0  0  0  0  0  0  0  0  0
   -0.7500   -1.2990    0.0000 C   0  0  0  0  0  0  0  0  0  0  0  0
   -1.2135   -2.7256    0.0000 N   0  0  0  0  0  0  0  0  0  0  0  0
   -2.6401   -3.1891    0.0000 R   0  0  0  0  0  1  0  0  0  1  0  0
   -1.2990   -5.8573    0.0000 R   0  0  0  0  0  1  0  0  0  2  0  0
  1  2  2  0
  2  3  1  0
  3  4  1  0
  4  5  1  0
  5  6  1  0
  6  7  1  0
  7  8  1  0
  8  9  1  0
  9 10  1  0
 10 11  1  0
 11 12  1  0
  2 13  1  0
 11  3  1  0
 10  5  1  0
M  END
>  <id>  (17) 
e305bec0-c9ef-4115-a7d9-8ad24926a3a0

>  <Version>  (17) 
0

>  <Alias>  (17) 
racOic

>  <Type>  (17) 
amino_acid

>  <Smiles>  (17) 
O=C(C1CC2CCCCC2N1[*:1])[*:2]

>  <ProtectedSmiles>  (17) 
O=C(O)C1CC2CCCCC2N1C(=O)OCC1c2ccccc2-c2ccccc21

>  <CAS>  (17) 
1339741-89-7

>  <User>  (17) 
mischa.s

>  <StereoComment>  (17) 
as drawn

>  <Name>  (17) 
Fmoc-racOic-OH

>  <Code>  (17) 
racOic

>  <AliasLowerCase>  (17) 
racoic

>  <LatestVersion>  (17) 
0.0

>  <createdAt>  (17) 
2026-01-14T11:37:20.257Z

>  <updatedAt>  (17) 
2026-01-14T11:37:20.257Z

>  <NumRotatableBonds>  (17) 
1

>  <is_N_methyl>  (17) 
False

>  <is_a_methyl>  (17) 
False

>  <is_alpha_aa>  (17) 
True

>  <is_beta_aa>  (17) 
False

>  <is_S100_aa>  (17) 
False

>  <Murcko_SMILES>  (17) 
C1CCC2NCCC2C1

$$$$

     RDKit          2D

 10  9  0  0  0  0  0  0  0  0999 V2000
    9.0933    2.2500    0.0000 O   0  0  0  0  0  0  0  0  0  0  0  0
    9.0933    0.7500    0.0000 C   0  0  0  0  0  0  0  0  0  0  0  0
    7.7942   -0.0000    0.0000 C   0  0  0  0  0  0  0  0  0  0  0  0
    6.4952    0.7500    0.0000 C   0  0  0  0  0  0  0  0  0  0  0  0
    5.1962   -0.0000    0.0000 C   0  0  0  0  0  0  0  0  0  0  0  0
    3.8971    0.7500    0.0000 C   0  0  0  0  0  0  0  0  0  0  0  0
    2.5981   -0.0000    0.0000 C   0  0  0  0  0  0  0  0  0  0  0  0
    1.2990    0.7500    0.0000 N   0  0  0  0  0  0  0  0  0  0  0  0
    0.0000    0.0000    0.0000 R   0  0  0  0  0  1  0  0  0  1  0  0
   10.3923   -0.0000    0.0000 R   0  0  0  0  0  1  0  0  0  2  0  0
  1  2  2  0
  2  3  1  0
  3  4  1  0
  4  5  1  0
  5  6  1  0
  6  7  1  0
  7  8  1  0
  8  9  1  0
  2 10  1  0
M  END
>  <id>  (18) 
5754b33b-10b7-487a-bc0d-c2ad2dc6f400

>  <Version>  (18) 
0

>  <Alias>  (18) 
Ahx

>  <Type>  (18) 
amino_acid

>  <Smiles>  (18) 
O=C(CCCCCN[*:1])[*:2]

>  <ProtectedSmiles>  (18) 
O=C(O)CCCCCNC(=O)OCC1c2ccccc2-c2ccccc21

>  <CAS>  (18) 
88574-06-5

>  <User>  (18) 
emile.b

>  <StereoComment>  (18) 
as drawn

>  <Name>  (18) 
Fmoc-6-aminohexanoic acid

>  <Code>  (18) 
Ahx

>  <AliasLowerCase>  (18) 
ahx

>  <LatestVersion>  (18) 
0.0

>  <createdAt>  (18) 
2026-01-14T11:34:07.675Z

>  <updatedAt>  (18) 
2026-01-14T11:34:07.675Z

>  <NumRotatableBonds>  (18) 
6

>  <is_N_methyl>  (18) 
False

>  <is_a_methyl>  (18) 
False

>  <is_alpha_aa>  (18) 
False

>  <is_beta_aa>  (18) 
False

>  <is_S100_aa>  (18) 
False

>  <Murcko_SMILES>  (18) 


$$$$

     RDKit          2D

 15 15  0  0  0  0  0  0  0  0999 V2000
    8.2500   -1.2990    0.0000 O   0  0  0  0  0  0  0  0  0  0  0  0
    7.5000   -2.5981    0.0000 C   0  0  0  0  0  0  0  0  0  0  0  0
    6.0000   -2.5981    0.0000 C   0  0  0  0  0  0  0  0  0  0  0  0
    5.2500   -1.2990    0.0000 C   0  0  0  0  0  0  0  0  0  0  0  0
    3.7500   -1.2990    0.0000 O   0  0  0  0  0  0  0  0  0  0  0  0
    3.0000    0.0000    0.0000 C   0  0  0  0  0  0  0  0  0  0  0  0
    1.5000    0.0000    0.0000 C   0  0  0  0  0  0  0  0  0  0  0  0
    0.7500   -1.2990    0.0000 C   0  0  0  0  0  0  0  0  0  0  0  0
   -0.7500   -1.2990    0.0000 C   0  0  0  0  0  0  0  0  0  0  0  0
   -1.5000    0.0000    0.0000 C   0  0  0  0  0  0  0  0  0  0  0  0
   -0.7500    1.2990    0.0000 C   0  0  0  0  0  0  0  0  0  0  0  0
    0.7500    1.2990    0.0000 C   0  0  0  0  0  0  0  0  0  0  0  0
    5.2500   -3.8971    0.0000 N   0  0  0  0  0  0  0  0  0  0  0  0
    6.0000   -5.1962    0.0000 R   0  0  0  0  0  1  0  0  0  1  0  0
    8.2500   -3.8971    0.0000 R   0  0  0  0  0  1  0  0  0  2  0  0
  1  2  2  0
  2  3  1  0
  3  4  1  1
  4  5  1  0
  5  6  1  0
  6  7  1  0
  7  8  2  0
  8  9  1  0
  9 10  2  0
 10 11  1  0
 11 12  2  0
  3 13  1  0
 13 14  1  0
  2 15  1  0
 12  7  1  0
M  END
>  <id>  (19) 
40fcb52c-4776-4c50-a523-97cf5be6ecaa

>  <Version>  (19) 
0

>  <Alias>  (19) 
Ser(OBenz)

>  <Type>  (19) 
amino_acid

>  <Smiles>  (19) 
O=C([C@H](COCc1ccccc1)N[*:1])[*:2]

>  <ProtectedSmiles>  (19) 
O=C(N[C@@H](COCc1ccccc1)C(=O)O)OCC1c2ccccc2-c2ccccc21

>  <CAS>  (19) 
83792-48-7

>  <User>  (19) 
gontran.s

>  <StereoComment>  (19) 
as drawn

>  <Name>  (19) 
Fmoc-Ser(Bzl)-OH

>  <Code>  (19) 
Ser(OBenz)

>  <AliasLowerCase>  (19) 
ser(obenz)

>  <LatestVersion>  (19) 
0.0

>  <createdAt>  (19) 
2026-01-14T11:37:01.466Z

>  <updatedAt>  (19) 
2026-01-14T11:37:01.466Z

>  <NumRotatableBonds>  (19) 
6

>  <is_N_methyl>  (19) 
False

>  <is_a_methyl>  (19) 
False

>  <is_alpha_aa>  (19) 
True

>  <is_beta_aa>  (19) 
False

>  <is_S100_aa>  (19) 
False

>  <Murcko_SMILES>  (19) 
c1ccccc1

$$$$

     RDKit          2D

  8  7  0  0  0  0  0  0  0  0999 V2000
    1.2990   -2.2500    0.0000 O   0  0  0  0  0  0  0  0  0  0  0  0
    2.5981   -1.5000    0.0000 C   0  0  0  0  0  0  0  0  0  0  0  0
    2.5981   -0.0000    0.0000 C   0  0  0  0  0  0  0  0  0  0  0  0
    3.8971    0.7500    0.0000 C   0  0  0  0  0  0  0  0  0  0  0  0
    5.1962   -0.0000    0.0000 O   0  0  0  0  0  0  0  0  0  0  0  0
    1.2990    0.7500    0.0000 N   0  0  0  0  0  0  0  0  0  0  0  0
    0.0000    0.0000    0.0000 R   0  0  0  0  0  1  0  0  0  1  0  0
    3.8971   -2.2500    0.0000 R   0  0  0  0  0  1  0  0  0  2  0  0
  1  2  2  0
  2  3  1  0
  3  4  1  1
  4  5  1  0
  3  6  1  0
  6  7  1  0
  2  8  1  0
M  END
>  <id>  (20) 
86f3ddbb-68af-4ff1-80f6-7c6d1d8121a4

>  <Version>  (20) 
0

>  <Alias>  (20) 
Ser

>  <Type>  (20) 
amino_acid

>  <Smiles>  (20) 
O=C([C@H](CO)N[*:1])[*:2]

>  <ProtectedSmiles>  (20) 
CC(C)(C)OC[C@H](NC(=O)OCC1c2ccccc2-c2ccccc21)C(=O)O

>  <CAS>  (20) 
71989-33-8

>  <User>  (20) 
sevan.h

>  <StereoComment>  (20) 
as drawn

>  <Name>  (20) 
Fmoc-Ser(tBu)-OH

>  <Code>  (20) 
Ser

>  <AliasLowerCase>  (20) 
ser

>  <LatestVersion>  (20) 
0.0

>  <createdAt>  (20) 
2026-01-14T12:17:19.087Z

>  <updatedAt>  (20) 
2026-01-14T12:17:19.087Z

>  <NumRotatableBonds>  (20) 
3

>  <is_N_methyl>  (20) 
False

>  <is_a_methyl>  (20) 
False

>  <is_alpha_aa>  (20) 
True

>  <is_beta_aa>  (20) 
False

>  <is_S100_aa>  (20) 
False

>  <Murcko_SMILES>  (20) 


$$$$

     RDKit          2D

  9  8  0  0  0  0  0  0  0  0999 V2000
    6.4952    0.7500    0.0000 C   0  0  0  0  0  0  0  0  0  0  0  0
    5.1962   -0.0000    0.0000 O   0  0  0  0  0  0  0  0  0  0  0  0
    3.8971    0.7500    0.0000 C   0  0  0  0  0  0  0  0  0  0  0  0
    2.5981   -0.0000    0.0000 C   0  0  0  0  0  0  0  0  0  0  0  0
    1.2990    0.7500    0.0000 N   0  0  0  0  0  0  0  0  0  0  0  0
    0.0000    0.0000    0.0000 R   0  0  0  0  0  1  0  0  0  1  0  0
    2.5981   -1.5000    0.0000 C   0  0  0  0  0  0  0  0  0  0  0  0
    1.2990   -2.2500    0.0000 O   0  0  0  0  0  0  0  0  0  0  0  0
    3.8971   -2.2500    0.0000 R   0  0  0  0  0  1  0  0  0  2  0  0
  1  2  1  0
  2  3  1  0
  4  3  1  1
  4  5  1  0
  5  6  1  0
  4  7  1  0
  7  8  2  0
  7  9  1  0
M  END
>  <id>  (21) 
cfee3c89-67be-4977-bf83-676d6e63d301

>  <Version>  (21) 
0

>  <Alias>  (21) 
Ser(OMe)

>  <Type>  (21) 
amino_acid

>  <Smiles>  (21) 
COC[C@H](N[*:1])C(=O)[*:2]

>  <ProtectedSmiles>  (21) 
COC[C@H](NC(=O)OCC1c2ccccc2-c2ccccc21)C(=O)O

>  <CAS>  (21) 
159610-93-2

>  <User>  (21) 
sevan.h

>  <StereoComment>  (21) 
as drawn

>  <Name>  (21) 
Fmoc-Ser(OMe)-OH

>  <Code>  (21) 
Ser(OMe)

>  <AliasLowerCase>  (21) 
ser(ome)

>  <LatestVersion>  (21) 
0.0

>  <createdAt>  (21) 
2026-01-14T12:16:36.117Z

>  <updatedAt>  (21) 
2026-01-14T12:16:36.117Z

>  <NumRotatableBonds>  (21) 
4

>  <is_N_methyl>  (21) 
False

>  <is_a_methyl>  (21) 
False

>  <is_alpha_aa>  (21) 
True

>  <is_beta_aa>  (21) 
False

>  <is_S100_aa>  (21) 
False

>  <Murcko_SMILES>  (21) 


$$$$

     RDKit          2D

 12 12  0  0  0  0  0  0  0  0999 V2000
    3.0000   -2.5981    0.0000 O   0  0  0  0  0  0  0  0  0  0  0  0
    3.7500   -1.2990    0.0000 C   0  0  0  0  0  0  0  0  0  0  0  0
    3.0000    0.0000    0.0000 C   0  0  0  0  0  0  0  0  0  0  0  0
    1.5000    0.0000    0.0000 C   0  0  0  0  0  0  0  0  0  0  0  0
    0.7500   -1.2990    0.0000 C   0  0  0  0  0  0  0  0  0  0  0  0
   -0.7500   -1.2990    0.0000 C   0  0  0  0  0  0  0  0  0  0  0  0
   -1.5000    0.0000    0.0000 C   0  0  0  0  0  0  0  0  0  0  0  0
   -3.0000    0.0000    0.0000 N   0  0  0  0  0  0  0  0  0  0  0  0
   -3.7500    1.2990    0.0000 R   0  0  0  0  0  1  0  0  0  1  0  0
   -0.7500    1.2990    0.0000 C   0  0  0  0  0  0  0  0  0  0  0  0
    0.7500    1.2990    0.0000 C   0  0  0  0  0  0  0  0  0  0  0  0
    5.2500   -1.2990    0.0000 R   0  0  0  0  0  1  0  0  0  2  0  0
  1  2  2  0
  2  3  1  0
  4  3  1  1
  4  5  1  0
  5  6  1  0
  6  7  1  0
  7  8  1  1
  8  9  1  0
  7 10  1  0
 10 11  1  0
  2 12  1  0
 11  4  1  0
M  END
>  <id>  (22) 
b44055b9-a57b-48b8-8083-3b32acddf153

>  <Version>  (22) 
0

>  <Alias>  (22) 
1,4-cis-AchOH

>  <Type>  (22) 
amino_acid

>  <Smiles>  (22) 
O=C(C[C@H]1CC[C@@H](N[*:1])CC1)[*:2]

>  <ProtectedSmiles>  (22) 
O=C(O)C[C@H]1CC[C@@H](NC(=O)OCC2c3ccccc3-c3ccccc32)CC1

>  <CAS>  (22) 
1217675-84-7

>  <User>  (22) 
marie.g

>  <StereoComment>  (22) 
as drawn

>  <Name>  (22) 
Fmoc-1,4-cis-acha-oh

>  <Code>  (22) 
1,4-cis-AchOH

>  <AliasLowerCase>  (22) 
1,4-cis-achoh

>  <LatestVersion>  (22) 
0.0

>  <createdAt>  (22) 
2026-01-14T11:33:48.814Z

>  <updatedAt>  (22) 
2026-01-14T11:33:48.814Z

>  <NumRotatableBonds>  (22) 
3

>  <is_N_methyl>  (22) 
False

>  <is_a_methyl>  (22) 
False

>  <is_alpha_aa>  (22) 
False

>  <is_beta_aa>  (22) 
False

>  <is_S100_aa>  (22) 
False

>  <Murcko_SMILES>  (22) 
C1CCCCC1

$$$$

     RDKit          2D

 10  9  0  0  0  0  0  0  0  0999 V2000
    6.4952    5.2500    0.0000 C   0  0  0  0  0  0  0  0  0  0  0  0
    5.1962    4.5000    0.0000 O   0  0  0  0  0  0  0  0  0  0  0  0
    5.1962    3.0000    0.0000 C   0  0  0  0  0  0  0  0  0  0  0  0
    3.8971    2.2500    0.0000 C   0  0  0  0  0  0  0  0  0  0  0  0
    3.8971    0.7500    0.0000 N   0  0  0  0  0  0  0  0  0  0  0  0
    2.5981   -0.0000    0.0000 C   0  0  0  0  0  0  0  0  0  0  0  0
    1.2990    0.7500    0.0000 C   0  0  0  0  0  0  0  0  0  0  0  0
    1.2990    2.2500    0.0000 O   0  0  0  0  0  0  0  0  0  0  0  0
    0.0000    0.0000    0.0000 R   0  0  0  0  0  1  0  0  0  2  0  0
    5.1962   -0.0000    0.0000 R   0  0  0  0  0  1  0  0  0  1  0  0
  1  2  1  0
  2  3  1  0
  3  4  1  0
  4  5  1  0
  5  6  1  0
  6  7  1  0
  7  8  2  0
  7  9  1  0
  5 10  1  0
M  END
>  <id>  (23) 
6f207f11-72f6-4ec5-a4d4-6ac4d945ada4

>  <Version>  (23) 
0

>  <Alias>  (23) 
MeOEtGly

>  <Type>  (23) 
amino_acid

>  <Smiles>  (23) 
COCCN(CC(=O)[*:2])[*:1]

>  <ProtectedSmiles>  (23) 
COCCN(CC(=O)O)C(=O)OCC1c2ccccc2-c2ccccc21

>  <CAS>  (23) 
1341969-00-3

>  <User>  (23) 
sevan.h

>  <StereoComment>  (23) 
as drawn

>  <Name>  (23) 
N-(methoxyethyl)-N-Fmoc-glycine

>  <Code>  (23) 
MeOEtGly

>  <AliasLowerCase>  (23) 
meoetgly

>  <LatestVersion>  (23) 
0.0

>  <createdAt>  (23) 
2026-01-14T11:38:19.448Z

>  <updatedAt>  (23) 
2026-01-14T11:38:19.448Z

>  <NumRotatableBonds>  (23) 
5

>  <is_N_methyl>  (23) 
False

>  <is_a_methyl>  (23) 
False

>  <is_alpha_aa>  (23) 
True

>  <is_beta_aa>  (23) 
False

>  <is_S100_aa>  (23) 
False

>  <Murcko_SMILES>  (23) 


$$$$

     RDKit          2D

 13 12  0  0  0  0  0  0  0  0999 V2000
   10.3923   -0.0000    0.0000 C   0  0  0  0  0  0  0  0  0  0  0  0
    9.0933    0.7500    0.0000 C   0  0  0  0  0  0  0  0  0  0  0  0
    9.0933    2.2500    0.0000 O   0  0  0  0  0  0  0  0  0  0  0  0
    7.7942   -0.0000    0.0000 N   0  0  0  0  0  0  0  0  0  0  0  0
    6.4952    0.7500    0.0000 C   0  0  0  0  0  0  0  0  0  0  0  0
    5.1962   -0.0000    0.0000 C   0  0  0  0  0  0  0  0  0  0  0  0
    3.8971    0.7500    0.0000 C   0  0  0  0  0  0  0  0  0  0  0  0
    2.5981   -0.0000    0.0000 C   0  0  0  0  0  0  0  0  0  0  0  0
    1.2990    0.7500    0.0000 N   0  0  0  0  0  0  0  0  0  0  0  0
    0.0000    0.0000    0.0000 R   0  0  0  0  0  1  0  0  0  1  0  0
    2.5981   -1.5000    0.0000 C   0  0  0  0  0  0  0  0  0  0  0  0
    1.2990   -2.2500    0.0000 O   0  0  0  0  0  0  0  0  0  0  0  0
    3.8971   -2.2500    0.0000 R   0  0  0  0  0  1  0  0  0  2  0  0
  1  2  1  0
  2  3  2  0
  2  4  1  0
  4  5  1  0
  5  6  1  0
  6  7  1  0
  8  7  1  1
  8  9  1  0
  9 10  1  0
  8 11  1  0
 11 12  2  0
 11 13  1  0
M  END
>  <id>  (24) 
ea2ccc74-5674-4957-8093-5337b209173b

>  <Version>  (24) 
0

>  <Alias>  (24) 
N-Ac-Orn

>  <Type>  (24) 
amino_acid

>  <Smiles>  (24) 
CC(=O)NCCC[C@H](N[*:1])C(=O)[*:2]

>  <ProtectedSmiles>  (24) 
CC(=O)NCCC[C@H](NC(=O)OCC1c2ccccc2-c2ccccc21)C(=O)O

>  <CAS>  (24) 
172690-48-1

>  <User>  (24) 
clement.gensous@orbismedicines.com

>  <StereoComment>  (24) 
as drawn

>  <Name>  (24) 
N-Ac-Orn

>  <Code>  (24) 
N-Ac-Orn

>  <AliasLowerCase>  (24) 
n-ac-orn

>  <LatestVersion>  (24) 
0.0

>  <createdAt>  (24) 
2026-01-15T09:28:43.712Z

>  <updatedAt>  (24) 
2026-01-15T09:28:43.712Z

>  <NumRotatableBonds>  (24) 
6

>  <is_N_methyl>  (24) 
False

>  <is_a_methyl>  (24) 
False

>  <is_alpha_aa>  (24) 
True

>  <is_beta_aa>  (24) 
False

>  <is_S100_aa>  (24) 
False

>  <Murcko_SMILES>  (24) 


$$$$

     RDKit          2D

  9  8  0  0  0  0  0  0  0  0999 V2000
    5.1962   -1.5000    0.0000 O   0  0  0  0  0  0  0  0  0  0  0  0
    5.1962   -0.0000    0.0000 C   0  0  0  0  0  0  0  0  0  0  0  0
    3.8971    0.7500    0.0000 C   0  0  0  0  0  0  0  0  0  0  0  0
    2.5981   -0.0000    0.0000 C   0  0  0  0  0  0  0  0  0  0  0  0
    2.5981   -1.5000    0.0000 C   0  0  0  0  0  0  0  0  0  0  0  0
    3.8971   -2.2500    0.0000 O   0  0  0  0  0  0  0  0  0  0  0  0
    1.2990    0.7500    0.0000 N   0  0  0  0  0  0  0  0  0  0  0  0
    0.0000    0.0000    0.0000 R   0  0  0  0  0  1  0  0  0  1  0  0
    6.4952    0.7500    0.0000 R   0  0  0  0  0  1  0  0  0  2  0  0
  1  2  2  0
  2  3  1  0
  4  3  1  6
  4  5  1  0
  5  6  1  0
  4  7  1  0
  7  8  1  0
  2  9  1  0
M  END
>  <id>  (25) 
95893949-2aa5-47d1-bc53-ee749d37038b

>  <Version>  (25) 
0

>  <Alias>  (25) 
B-hSer(OtBu)

>  <Type>  (25) 
amino_acid

>  <Smiles>  (25) 
O=C(C[C@H](CO)N[*:1])[*:2]

>  <ProtectedSmiles>  (25) 
CC(C)(C)OC[C@@H](CC(=O)O)NC(=O)OCC1c2ccccc2-c2ccccc21

>  <CAS>  (25) 
203854-51-7

>  <User>  (25) 
angelica.l

>  <StereoComment>  (25) 
as drawn

>  <Name>  (25) 
(3R)-3-(9H-Fluoren-9-ylmethoxycarbonylamino)-4-[(2-methylpropan-2-yl)oxy]butanoic acid

>  <Code>  (25) 
B-hSer(OtBu)

>  <AliasLowerCase>  (25) 
b-hser(otbu)

>  <LatestVersion>  (25) 
0.0

>  <createdAt>  (25) 
2026-01-14T11:34:32.818Z

>  <updatedAt>  (25) 
2026-01-14T11:34:32.818Z

>  <NumRotatableBonds>  (25) 
4

>  <is_N_methyl>  (25) 
False

>  <is_a_methyl>  (25) 
False

>  <is_alpha_aa>  (25) 
False

>  <is_beta_aa>  (25) 
True

>  <is_S100_aa>  (25) 
False

>  <Murcko_SMILES>  (25) 


$$$$

     RDKit          2D

  7  6  0  0  0  0  0  0  0  0999 V2000
    3.8971    0.7500    0.0000 C   0  0  0  0  0  0  0  0  0  0  0  0
    2.5981   -0.0000    0.0000 C   0  0  0  0  0  0  0  0  0  0  0  0
    1.2990    0.7500    0.0000 N   0  0  0  0  0  0  0  0  0  0  0  0
    0.0000    0.0000    0.0000 R   0  0  0  0  0  1  0  0  0  1  0  0
    2.5981   -1.5000    0.0000 C   0  0  0  0  0  0  0  0  0  0  0  0
    1.2990   -2.2500    0.0000 O   0  0  0  0  0  0  0  0  0  0  0  0
    3.8971   -2.2500    0.0000 R   0  0  0  0  0  1  0  0  0  2  0  0
  2  1  1  1
  2  3  1  0
  3  4  1  0
  2  5  1  0
  5  6  2  0
  5  7  1  0
M  END
>  <id>  (26) 
1cee963b-c932-47ea-a8d9-428051407745

>  <Version>  (26) 
0

>  <Alias>  (26) 
Ala

>  <Type>  (26) 
amino_acid

>  <Smiles>  (26) 
C[C@H](N[*:1])C(=O)[*:2]

>  <ProtectedSmiles>  (26) 
C[C@H](NC(=O)OCC1c2ccccc2-c2ccccc21)C(=O)O

>  <CAS>  (26) 
35661-39-3

>  <User>  (26) 
sevan.h

>  <StereoComment>  (26) 
as drawn

>  <Name>  (26) 
Fmoc-Ala-OH

>  <Code>  (26) 
Ala

>  <AliasLowerCase>  (26) 
ala

>  <LatestVersion>  (26) 
0.0

>  <createdAt>  (26) 
2026-01-14T12:17:16.522Z

>  <updatedAt>  (26) 
2026-01-14T12:17:16.522Z

>  <NumRotatableBonds>  (26) 
2

>  <is_N_methyl>  (26) 
False

>  <is_a_methyl>  (26) 
False

>  <is_alpha_aa>  (26) 
True

>  <is_beta_aa>  (26) 
False

>  <is_S100_aa>  (26) 
False

>  <Murcko_SMILES>  (26) 


$$$$

     RDKit          2D

 11 11  0  0  0  0  0  0  0  0999 V2000
    2.3907    1.0037    0.0000 C   0  0  0  0  0  0  0  0  0  0  0  0
    1.2760    0.0000    0.0000 C   0  0  0  0  0  0  0  0  0  0  0  0
    2.3907   -1.0037    0.0000 C   0  0  0  0  0  0  0  0  0  0  0  0
    0.3943    1.2135    0.0000 C   0  0  0  0  0  0  0  0  0  0  0  0
   -1.0323    0.7500    0.0000 C   0  0  0  0  0  0  0  0  0  0  0  0
   -1.0323   -0.7500    0.0000 N   0  0  0  0  0  0  0  0  0  0  0  0
   -2.2458   -1.6317    0.0000 R   0  0  0  0  0  1  0  0  0  1  0  0
    0.3943   -1.2135    0.0000 C   0  0  0  0  0  0  0  0  0  0  0  0
    0.8578   -2.6401    0.0000 C   0  0  0  0  0  0  0  0  0  0  0  0
    2.3250   -2.9520    0.0000 O   0  0  0  0  0  0  0  0  0  0  0  0
   -0.1459   -3.7548    0.0000 R   0  0  0  0  0  1  0  0  0  2  0  0
  1  2  1  0
  2  3  1  0
  2  4  1  0
  4  5  1  0
  5  6  1  0
  6  7  1  0
  6  8  1  0
  8  9  1  1
  9 10  2  0
  9 11  1  0
  8  2  1  0
M  END
>  <id>  (27) 
5dc48b5c-a569-40e4-9f29-387963cab3bc

>  <Version>  (27) 
0

>  <Alias>  (27) 
Pro(3,3-diMe)

>  <Type>  (27) 
amino_acid

>  <Smiles>  (27) 
CC1(C)CCN([*:1])[C@@H]1C(=O)[*:2]

>  <ProtectedSmiles>  (27) 
CC1(C)CCN(C(=O)OCC2c3ccccc3-c3ccccc32)[C@@H]1C(=O)O

>  <CAS>  (27) 
1982344-79-5

>  <User>  (27) 
angelica.l

>  <StereoComment>  (27) 
as drawn

>  <Name>  (27) 
(2S)-1-Fmoc-3,3-dimethyl-pyrrolidine-2-carboxylic acid

>  <Code>  (27) 
Pro(3,3-diMe)

>  <AliasLowerCase>  (27) 
pro(3,3-dime)

>  <LatestVersion>  (27) 
0.0

>  <createdAt>  (27) 
2026-01-14T11:36:42.493Z

>  <updatedAt>  (27) 
2026-01-14T11:36:42.493Z

>  <NumRotatableBonds>  (27) 
1

>  <is_N_methyl>  (27) 
False

>  <is_a_methyl>  (27) 
False

>  <is_alpha_aa>  (27) 
True

>  <is_beta_aa>  (27) 
False

>  <is_S100_aa>  (27) 
False

>  <Murcko_SMILES>  (27) 
C1CCNC1

$$$$

     RDKit          2D

 14 15  0  0  0  0  0  0  0  0999 V2000
    3.0000   -5.1962    0.0000 O   0  0  0  0  0  0  0  0  0  0  0  0
    1.5000   -5.1962    0.0000 C   0  0  0  0  0  0  0  0  0  0  0  0
    0.7500   -3.8971    0.0000 C   0  0  0  0  0  0  0  0  0  0  0  0
    1.5000   -2.5981    0.0000 C   0  0  0  0  0  0  0  0  0  0  0  0
    0.7500   -1.2990    0.0000 C   0  0  0  0  0  0  0  0  0  0  0  0
    1.5000    0.0000    0.0000 C   0  0  0  0  0  0  0  0  0  0  0  0
    0.7500    1.2990    0.0000 C   0  0  0  0  0  0  0  0  0  0  0  0
   -0.7500    1.2990    0.0000 C   0  0  0  0  0  0  0  0  0  0  0  0
   -1.5000    0.0000    0.0000 C   0  0  0  0  0  0  0  0  0  0  0  0
   -0.7500   -1.2990    0.0000 C   0  0  0  0  0  0  0  0  0  0  0  0
   -1.5000   -2.5981    0.0000 C   0  0  0  0  0  0  0  0  0  0  0  0
   -0.7500   -3.8971    0.0000 N   0  0  0  0  0  0  0  0  0  0  0  0
   -1.5000   -5.1962    0.0000 R   0  0  0  0  0  1  0  0  0  1  0  0
    0.7500   -6.4952    0.0000 R   0  0  0  0  0  1  0  0  0  2  0  0
  1  2  2  0
  3  2  1  6
  3  4  1  0
  4  5  1  0
  5  6  2  0
  6  7  1  0
  7  8  2  0
  8  9  1  0
  9 10  2  0
 10 11  1  0
 11 12  1  0
 12 13  1  0
  2 14  1  0
 12  3  1  0
 10  5  1  0
M  END
>  <id>  (28) 
df08754e-81fa-4839-930f-2772a05779dd

>  <Version>  (28) 
0

>  <Alias>  (28) 
D-Tic

>  <Type>  (28) 
amino_acid

>  <Smiles>  (28) 
O=C([C@H]1Cc2ccccc2CN1[*:1])[*:2]

>  <ProtectedSmiles>  (28) 
O=C(O)[C@H]1Cc2ccccc2CN1C(=O)OCC1c2ccccc2-c2ccccc21

>  <CAS>  (28) 
130309-33-0

>  <User>  (28) 
sevan.h

>  <StereoComment>  (28) 
as drawn

>  <Name>  (28) 
Fmoc-D-Tic-OH

>  <Code>  (28) 
D-Tic

>  <AliasLowerCase>  (28) 
d-tic

>  <LatestVersion>  (28) 
0.0

>  <createdAt>  (28) 
2026-01-14T12:17:28.733Z

>  <updatedAt>  (28) 
2026-01-14T12:17:28.733Z

>  <NumRotatableBonds>  (28) 
1

>  <is_N_methyl>  (28) 
False

>  <is_a_methyl>  (28) 
False

>  <is_alpha_aa>  (28) 
True

>  <is_beta_aa>  (28) 
False

>  <is_S100_aa>  (28) 
False

>  <Murcko_SMILES>  (28) 
c1ccc2c(c1)CCNC2

$$$$

     RDKit          2D

 14 14  0  0  0  0  0  0  0  0999 V2000
    6.0000    0.0000    0.0000 O   0  0  0  0  0  0  0  0  0  0  0  0
    5.2500   -1.2990    0.0000 C   0  0  0  0  0  0  0  0  0  0  0  0
    3.7500   -1.2990    0.0000 C   0  0  0  0  0  0  0  0  0  0  0  0
    3.0000    0.0000    0.0000 C   0  0  0  0  0  0  0  0  0  0  0  0
    1.5000    0.0000    0.0000 C   0  0  0  0  0  0  0  0  0  0  0  0
    0.7500   -1.2990    0.0000 C   0  0  0  0  0  0  0  0  0  0  0  0
   -0.7500   -1.2990    0.0000 C   0  0  0  0  0  0  0  0  0  0  0  0
   -1.5000    0.0000    0.0000 C   0  0  0  0  0  0  0  0  0  0  0  0
   -3.0000    0.0000    0.0000 O   0  0  0  0  0  0  0  0  0  0  0  0
   -0.7500    1.2990    0.0000 C   0  0  0  0  0  0  0  0  0  0  0  0
    0.7500    1.2990    0.0000 C   0  0  0  0  0  0  0  0  0  0  0  0
    3.0000   -2.5981    0.0000 N   0  0  0  0  0  0  0  0  0  0  0  0
    3.7500   -3.8971    0.0000 R   0  0  0  0  0  1  0  0  0  1  0  0
    6.0000   -2.5981    0.0000 R   0  0  0  0  0  1  0  0  0  2  0  0
  1  2  2  0
  2  3  1  0
  3  4  1  1
  4  5  1  0
  5  6  2  0
  6  7  1  0
  7  8  2  0
  8  9  1  0
  8 10  1  0
 10 11  2  0
  3 12  1  0
 12 13  1  0
  2 14  1  0
 11  5  1  0
M  END
>  <id>  (29) 
85f8c851-5d7d-4afb-82e0-4c834ad5b784

>  <Version>  (29) 
0

>  <Alias>  (29) 
Tyr

>  <Type>  (29) 
amino_acid

>  <Smiles>  (29) 
O=C([C@H](Cc1ccc(O)cc1)N[*:1])[*:2]

>  <ProtectedSmiles>  (29) 
O=C(N[C@@H](Cc1ccc(O)cc1)C(=O)O)OCC1c2ccccc2-c2ccccc21

>  <CAS>  (29) 
92954-90-0

>  <User>  (29) 
sevan.h

>  <StereoComment>  (29) 
as drawn

>  <Name>  (29) 
Fmoc-Tyr-OH

>  <Code>  (29) 
Tyr

>  <AliasLowerCase>  (29) 
tyr

>  <LatestVersion>  (29) 
0.0

>  <createdAt>  (29) 
2026-01-14T12:17:34.325Z

>  <updatedAt>  (29) 
2026-01-14T12:17:34.325Z

>  <NumRotatableBonds>  (29) 
4

>  <is_N_methyl>  (29) 
False

>  <is_a_methyl>  (29) 
False

>  <is_alpha_aa>  (29) 
True

>  <is_beta_aa>  (29) 
False

>  <is_S100_aa>  (29) 
False

>  <Murcko_SMILES>  (29) 
c1ccccc1

$$$$

     RDKit          2D

 13 14  0  0  0  0  0  0  0  0999 V2000
    3.7548   -2.1855    0.0000 O   0  0  0  0  0  0  0  0  0  0  0  0
    2.6401   -3.1891    0.0000 C   0  0  0  0  0  0  0  0  0  0  0  0
    1.2135   -2.7256    0.0000 C   0  0  0  0  0  0  0  0  0  0  0  0
    0.7500   -1.2990    0.0000 C   0  0  0  0  0  0  0  0  0  0  0  0
    1.5000    0.0000    0.0000 C   0  0  0  0  0  0  0  0  0  0  0  0
    0.7500    1.2990    0.0000 C   0  0  0  0  0  0  0  0  0  0  0  0
   -0.7500    1.2990    0.0000 C   0  0  0  0  0  0  0  0  0  0  0  0
   -1.5000    0.0000    0.0000 C   0  0  0  0  0  0  0  0  0  0  0  0
   -0.7500   -1.2990    0.0000 C   0  0  0  0  0  0  0  0  0  0  0  0
   -1.2135   -2.7256    0.0000 C   0  0  0  0  0  0  0  0  0  0  0  0
   -0.0000   -3.6073    0.0000 N   0  0  0  0  0  0  0  0  0  0  0  0
   -0.0000   -5.1073    0.0000 R   0  0  0  0  0  1  0  0  0  1  0  0
    2.9520   -4.6564    0.0000 R   0  0  0  0  0  1  0  0  0  2  0  0
  1  2  2  0
  2  3  1  0
  3  4  1  0
  4  5  1  1
  5  6  1  0
  6  7  1  0
  7  8  1  0
  9  8  1  1
  9 10  1  0
 10 11  1  0
 11 12  1  0
  2 13  1  0
 11  3  1  0
  9  4  1  0
M  END
>  <id>  (30) 
afed0d57-b8a7-4498-a21d-3b775af52263

>  <Version>  (30) 
0

>  <Alias>  (30) 
rel(3aS,7aR)Oic

>  <Type>  (30) 
amino_acid

>  <Smiles>  (30) 
O=C(C1[C@@H]2CCCC[C@@H]2CN1[*:1])[*:2]

>  <ProtectedSmiles>  (30) 
O=C(O)C1[C@@H]2CCCC[C@@H]2CN1C(=O)OCC1c2ccccc2-c2ccccc21

>  <CAS>  (30) 
2307710-26-3

>  <User>  (30) 
Sevan.habeshian@orbismedicines.com

>  <StereoComment>  (30) 
rac-cis

>  <Name>  (30) 
N/A

>  <Code>  (30) 
rel(3aS,7aR)Oic

>  <AliasLowerCase>  (30) 
rel(3as,7ar)oic

>  <LatestVersion>  (30) 
0.0

>  <createdAt>  (30) 
2026-02-13T09:56:35.492Z

>  <updatedAt>  (30) 
2026-02-13T09:56:35.492Z

>  <NumRotatableBonds>  (30) 
1

>  <is_N_methyl>  (30) 
False

>  <is_a_methyl>  (30) 
False

>  <is_alpha_aa>  (30) 
True

>  <is_beta_aa>  (30) 
False

>  <is_S100_aa>  (30) 
False

>  <Murcko_SMILES>  (30) 
C1CC[C@H]2CNC[C@H]2C1

$$$$

     RDKit          2D

  9  9  0  0  0  0  0  0  0  0999 V2000
    1.7331    2.5095    0.0000 O   0  0  0  0  0  0  0  0  0  0  0  0
    2.1213    1.0607    0.0000 C   0  0  0  0  0  0  0  0  0  0  0  0
    1.0607    0.0000    0.0000 C   0  0  0  0  0  0  0  0  0  0  0  0
    2.1213   -1.0607    0.0000 N   0  0  0  0  0  0  0  0  0  0  0  0
    1.7331   -2.5095    0.0000 R   0  0  0  0  0  1  0  0  0  1  0  0
   -0.0000   -1.0607    0.0000 C   0  0  0  0  0  0  0  0  0  0  0  0
   -1.0607    0.0000    0.0000 C   0  0  0  0  0  0  0  0  0  0  0  0
    0.0000    1.0607    0.0000 C   0  0  0  0  0  0  0  0  0  0  0  0
    3.5702    0.6724    0.0000 R   0  0  0  0  0  1  0  0  0  2  0  0
  1  2  2  0
  2  3  1  0
  3  4  1  0
  4  5  1  0
  3  6  1  0
  6  7  1  0
  7  8  1  0
  2  9  1  0
  8  3  1  0
M  END
>  <id>  (31) 
59d128b1-1430-4d60-81a3-f50492104786

>  <Version>  (31) 
0

>  <Alias>  (31) 
AC4C

>  <Type>  (31) 
amino_acid

>  <Smiles>  (31) 
O=C(C1(N[*:1])CCC1)[*:2]

>  <ProtectedSmiles>  (31) 
O=C(NC1(C(=O)O)CCC1)OCC1c2ccccc2-c2ccccc21

>  <CAS>  (31) 
885951-77-9

>  <User>  (31) 
clement.gensous@orbismedicines.com

>  <StereoComment>  (31) 
as drawn

>  <Name>  (31) 
AC4C

>  <Code>  (31) 
AC4C

>  <AliasLowerCase>  (31) 
ac4c

>  <LatestVersion>  (31) 
0.0

>  <createdAt>  (31) 
2026-01-15T09:28:36.981Z

>  <updatedAt>  (31) 
2026-01-15T09:28:36.981Z

>  <NumRotatableBonds>  (31) 
2

>  <is_N_methyl>  (31) 
False

>  <is_a_methyl>  (31) 
False

>  <is_alpha_aa>  (31) 
True

>  <is_beta_aa>  (31) 
False

>  <is_S100_aa>  (31) 
False

>  <Murcko_SMILES>  (31) 
C1CCC1

$$$$

     RDKit          2D

 15 15  0  0  0  0  0  0  0  0999 V2000
    3.7500   -1.2990    0.0000 C   0  0  0  0  0  0  0  0  0  0  0  0
    3.0000    0.0000    0.0000 O   0  0  0  0  0  0  0  0  0  0  0  0
    1.5000    0.0000    0.0000 C   0  0  0  0  0  0  0  0  0  0  0  0
    0.7500   -1.2990    0.0000 C   0  0  0  0  0  0  0  0  0  0  0  0
   -0.7500   -1.2990    0.0000 C   0  0  0  0  0  0  0  0  0  0  0  0
   -1.5000    0.0000    0.0000 C   0  0  0  0  0  0  0  0  0  0  0  0
   -3.0000    0.0000    0.0000 C   0  0  0  0  0  0  0  0  0  0  0  0
   -3.7500    1.2990    0.0000 C   0  0  0  0  0  0  0  0  0  0  0  0
   -3.0000    2.5981    0.0000 N   0  0  0  0  0  0  0  0  0  0  0  0
   -3.7500    3.8971    0.0000 R   0  0  0  0  0  1  0  0  0  1  0  0
   -5.2500    1.2990    0.0000 C   0  0  0  0  0  0  0  0  0  0  0  0
   -6.0000   -0.0000    0.0000 O   0  0  0  0  0  0  0  0  0  0  0  0
   -6.0000    2.5981    0.0000 R   0  0  0  0  0  1  0  0  0  2  0  0
   -0.7500    1.2990    0.0000 C   0  0  0  0  0  0  0  0  0  0  0  0
    0.7500    1.2990    0.0000 N   0  0  0  0  0  0  0  0  0  0  0  0
  1  2  1  0
  2  3  1  0
  3  4  2  0
  4  5  1  0
  5  6  2  0
  6  7  1  0
  8  7  1  1
  8  9  1  0
  9 10  1  0
  8 11  1  0
 11 12  2  0
 11 13  1  0
  6 14  1  0
 14 15  2  0
 15  3  1  0
M  END
>  <id>  (32) 
5a518b05-274a-4897-9e32-9f86f42d9f89

>  <Version>  (32) 
0

>  <Alias>  (32) 
5Pal(2OMe)

>  <Type>  (32) 
amino_acid

>  <Smiles>  (32) 
COc1ccc(C[C@H](N[*:1])C(=O)[*:2])cn1

>  <ProtectedSmiles>  (32) 
COc1ccc(C[C@H](NC(=O)OCC2c3ccccc3-c3ccccc32)C(=O)O)cn1

>  <CAS>  (32) 
1821775-88-5

>  <User>  (32) 
ebr@orbismedicines.com

>  <StereoComment>  (32) 
as drawn

>  <Name>  (32) 
Fmoc-3-(6-methoxy-3-pyridyl)-Ala-OH

>  <Code>  (32) 
5Pal(2OMe)

>  <AliasLowerCase>  (32) 
5pal(2ome)

>  <LatestVersion>  (32) 
0.0

>  <createdAt>  (32) 
2026-03-11T07:23:23.808Z

>  <updatedAt>  (32) 
2026-03-11T07:23:23.808Z

>  <NumRotatableBonds>  (32) 
5

>  <is_N_methyl>  (32) 
False

>  <is_a_methyl>  (32) 
False

>  <is_alpha_aa>  (32) 
True

>  <is_beta_aa>  (32) 
False

>  <is_S100_aa>  (32) 
False

>  <Murcko_SMILES>  (32) 
c1ccncc1

$$$$

     RDKit          2D

  0  0  0  0  0  0  0  0  0  0999 V3000
M  V30 BEGIN CTAB
M  V30 COUNTS 11 11 0 0 0
M  V30 BEGIN ATOM
M  V30 1 O 3.750000 1.299038 0.000000 0
M  V30 2 C 3.000000 0.000000 0.000000 0
M  V30 3 C 1.500000 0.000000 0.000000 0
M  V30 4 C 0.750000 -1.299038 0.000000 0
M  V30 5 C -0.750000 -1.299038 0.000000 0
M  V30 6 C -1.500000 0.000000 0.000000 0
M  V30 7 C -0.750000 1.299038 0.000000 0
M  V30 8 C 0.750000 1.299038 0.000000 0
M  V30 9 N 1.500000 2.598076 0.000000 0
M  V30 10 "NOT [H]" 0.750000 3.897114 0.000000 1
M  V30 11 "NOT [H]" 3.750000 -1.299038 0.000000 2
M  V30 END ATOM
M  V30 BEGIN BOND
M  V30 1 2 1 2
M  V30 2 1 3 2 CFG=3
M  V30 3 1 3 4
M  V30 4 1 4 5
M  V30 5 1 5 6
M  V30 6 1 6 7
M  V30 7 1 7 8
M  V30 8 1 8 9 CFG=1
M  V30 9 1 9 10
M  V30 10 1 2 11
M  V30 11 1 8 3
M  V30 END BOND
M  V30 BEGIN COLLECTION
M  V30 MDLV30/STERAC1 ATOMS=(2 3 8)
M  V30 END COLLECTION
M  V30 END CTAB
M  END
>  <id>  (33) 
3a0bc959-866f-4d96-80e2-d9dbaacfd54e

>  <Version>  (33) 
0

>  <Alias>  (33) 
t1,2ACH

>  <Type>  (33) 
amino_acid

>  <Smiles>  (33) 
O=C([C@@H]1CCCC[C@H]1N[*:1])[*:2] |&1:2,7|

>  <ProtectedSmiles>  (33) 
O=C(N[C@@H]1CCCC[C@H]1C(=O)O)OCC1c2ccccc2-c2ccccc21 |&1:3,8|

>  <CAS>  (33) 
381241-08-3

>  <User>  (33) 
sevan.h

>  <StereoComment>  (33) 
rac-trans

>  <Name>  (33) 
rac-(1R,2R)-2-(9H-fluoren-9-ylmethoxycarbonylamino)cyclohexanecarboxylic acid

>  <Code>  (33) 
t1,2ACH

>  <AliasLowerCase>  (33) 
t1,2ach

>  <LatestVersion>  (33) 
0.0

>  <createdAt>  (33) 
2026-01-14T12:16:23.739Z

>  <updatedAt>  (33) 
2026-01-14T12:16:23.739Z

>  <NumRotatableBonds>  (33) 
2

>  <is_N_methyl>  (33) 
False

>  <is_a_methyl>  (33) 
False

>  <is_alpha_aa>  (33) 
False

>  <is_beta_aa>  (33) 
True

>  <is_S100_aa>  (33) 
False

>  <Murcko_SMILES>  (33) 
C1CCCCC1 C1CCCCC1

$$$$

     RDKit          2D

 16 18  0  0  0  0  0  0  0  0999 V2000
   -0.7500   -3.8971    0.0000 O   0  0  0  0  0  0  0  0  0  0  0  0
    0.7500   -3.8971    0.0000 C   0  0  0  0  0  0  0  0  0  0  0  0
    1.5000   -2.5981    0.0000 C   0  0  0  0  0  0  0  0  0  0  0  0
    3.0000   -2.5981    0.0000 N   0  0  0  0  0  0  0  0  0  0  0  0
    3.7500   -3.8971    0.0000 R   0  0  0  0  0  1  0  0  0  1  0  0
    0.7500   -1.2990    0.0000 C   0  0  0  0  0  0  0  0  0  0  0  0
    1.5000    0.0000    0.0000 C   0  0  0  0  0  0  0  0  0  0  0  0
    0.7500    1.2990    0.0000 C   0  0  0  0  0  0  0  0  0  0  0  0
   -0.7500    1.2990    0.0000 C   0  0  0  0  0  0  0  0  0  0  0  0
   -1.5000    0.0000    0.0000 C   0  0  0  0  0  0  0  0  0  0  0  0
   -0.7500   -1.2990    0.0000 C   0  0  0  0  0  0  0  0  0  0  0  0
    1.7010   -0.7500    0.0000 C   0  0  0  0  0  0  0  0  0  0  0  0
    3.0000   -0.0000    0.0000 C   0  0  0  0  0  0  0  0  0  0  0  0
    2.2500   -1.2990    0.0000 C   0  0  0  0  0  0  0  0  0  0  0  0
    2.2500    1.2990    0.0000 C   0  0  0  0  0  0  0  0  0  0  0  0
    1.5000   -5.1962    0.0000 R   0  0  0  0  0  1  0  0  0  2  0  0
  1  2  2  0
  2  3  1  0
  3  4  1  6
  4  5  1  0
  3  6  1  0
  6  7  1  0
  8  7  1  6
  8  9  1  0
 10  9  1  6
 10 11  1  0
 10 12  1  0
 13 12  1  1
 13 14  1  0
 13 15  1  0
  2 16  1  0
 11  6  1  0
 14  6  1  0
 15  8  1  0
M  END
>  <id>  (34) 
c2ffbd66-5533-4549-a5fc-a2f2bcbf804a

>  <Version>  (34) 
0

>  <Alias>  (34) 
AdamGly

>  <Type>  (34) 
amino_acid

>  <Smiles>  (34) 
O=C([C@@H](N[*:1])C12C[C@H]3C[C@@H](C1)C[C@@H](C2)C3)[*:2]

>  <ProtectedSmiles>  (34) 
O=C(N[C@H](C(=O)O)C12C[C@H]3C[C@@H](C1)C[C@@H](C2)C3)OCC1c2ccccc2-c2ccccc21

>  <CAS>  (34) 
1221793-29-8

>  <User>  (34) 
marie.g

>  <StereoComment>  (34) 
as drawn

>  <Name>  (34) 
(S)-Fmoc-1-adamantyl-glycine

>  <Code>  (34) 
AdamGly

>  <AliasLowerCase>  (34) 
adamgly

>  <LatestVersion>  (34) 
0.0

>  <createdAt>  (34) 
2026-01-14T11:33:49.874Z

>  <updatedAt>  (34) 
2026-01-14T11:33:49.874Z

>  <NumRotatableBonds>  (34) 
3

>  <is_N_methyl>  (34) 
False

>  <is_a_methyl>  (34) 
False

>  <is_alpha_aa>  (34) 
True

>  <is_beta_aa>  (34) 
False

>  <is_S100_aa>  (34) 
False

>  <Murcko_SMILES>  (34) 
C1C2CC3CC1CC(C2)C3

$$$$

     RDKit          2D

 15 15  0  0  0  0  0  0  0  0999 V2000
    3.0000    1.5000    0.0000 C   0  0  0  0  0  0  0  0  0  0  0  0
    3.0000    0.0000    0.0000 C   0  0  0  0  0  0  0  0  0  0  0  0
    3.0000   -1.5000    0.0000 C   0  0  0  0  0  0  0  0  0  0  0  0
    1.5000    0.0000    0.0000 C   0  0  0  0  0  0  0  0  0  0  0  0
    0.7500   -1.2990    0.0000 C   0  0  0  0  0  0  0  0  0  0  0  0
   -0.7500   -1.2990    0.0000 C   0  0  0  0  0  0  0  0  0  0  0  0
   -1.5000    0.0000    0.0000 C   0  0  0  0  0  0  0  0  0  0  0  0
   -0.7500    1.2990    0.0000 C   0  0  0  0  0  0  0  0  0  0  0  0
    0.7500    1.2990    0.0000 C   0  0  0  0  0  0  0  0  0  0  0  0
    4.5000    0.0000    0.0000 C   0  0  0  0  0  0  0  0  0  0  0  0
    5.2500   -1.2990    0.0000 N   0  0  0  0  0  0  0  0  0  0  0  0
    6.7500   -1.2990    0.0000 R   0  0  0  0  0  1  0  0  0  1  0  0
    5.2500    1.2990    0.0000 C   0  0  0  0  0  0  0  0  0  0  0  0
    4.5000    2.5981    0.0000 O   0  0  0  0  0  0  0  0  0  0  0  0
    6.7500    1.2990    0.0000 R   0  0  0  0  0  1  0  0  0  2  0  0
  1  2  1  0
  2  3  1  0
  2  4  1  0
  4  5  2  0
  5  6  1  0
  6  7  2  0
  7  8  1  0
  8  9  2  0
  2 10  1  0
 10 11  1  0
 11 12  1  0
 10 13  1  0
 13 14  2  0
 13 15  1  0
  9  4  1  0
M  END
>  <id>  (35) 
d08bef38-241e-4d7f-b171-2b8daf54aa30

>  <Version>  (35) 
0

>  <Alias>  (35) 
diMePhe

>  <Type>  (35) 
amino_acid

>  <Smiles>  (35) 
CC(C)(c1ccccc1)C(N[*:1])C(=O)[*:2]

>  <ProtectedSmiles>  (35) 
CC(C)(c1ccccc1)C(NC(=O)OCC1c2ccccc2-c2ccccc21)C(=O)O

>  <CAS>  (35) 
1310680-19-3

>  <User>  (35) 
mischa.s

>  <StereoComment>  (35) 
as drawn

>  <Name>  (35) 
Fmoc-beta,beta-diMe-Phe-OH (rac)

>  <Code>  (35) 
diMePhe

>  <AliasLowerCase>  (35) 
dimephe

>  <LatestVersion>  (35) 
0.0

>  <createdAt>  (35) 
2026-01-14T11:37:47.438Z

>  <updatedAt>  (35) 
2026-01-14T11:37:47.438Z

>  <NumRotatableBonds>  (35) 
4

>  <is_N_methyl>  (35) 
False

>  <is_a_methyl>  (35) 
False

>  <is_alpha_aa>  (35) 
True

>  <is_beta_aa>  (35) 
False

>  <is_S100_aa>  (35) 
False

>  <Murcko_SMILES>  (35) 
c1ccccc1

$$$$

     RDKit          2D

 12 12  0  0  0  0  0  0  0  0999 V2000
    5.7760    0.0000    0.0000 O   0  0  0  0  0  0  0  0  0  0  0  0
    5.0260   -1.2990    0.0000 C   0  0  0  0  0  0  0  0  0  0  0  0
    3.5260   -1.2990    0.0000 C   0  0  0  0  0  0  0  0  0  0  0  0
    2.7760    0.0000    0.0000 C   0  0  0  0  0  0  0  0  0  0  0  0
    1.2760    0.0000    0.0000 C   0  0  0  0  0  0  0  0  0  0  0  0
    0.3943    1.2135    0.0000 C   0  0  0  0  0  0  0  0  0  0  0  0
   -1.0323    0.7500    0.0000 S   0  0  0  0  0  0  0  0  0  0  0  0
   -1.0323   -0.7500    0.0000 C   0  0  0  0  0  0  0  0  0  0  0  0
    0.3943   -1.2135    0.0000 N   0  0  0  0  0  0  0  0  0  0  0  0
    2.7760   -2.5981    0.0000 N   0  0  0  0  0  0  0  0  0  0  0  0
    3.5260   -3.8971    0.0000 R   0  0  0  0  0  1  0  0  0  1  0  0
    5.7760   -2.5981    0.0000 R   0  0  0  0  0  1  0  0  0  2  0  0
  1  2  2  0
  2  3  1  0
  3  4  1  6
  4  5  1  0
  5  6  2  0
  6  7  1  0
  7  8  1  0
  8  9  2  0
  3 10  1  0
 10 11  1  0
  2 12  1  0
  9  5  1  0
M  END
>  <id>  (36) 
dd9d0382-fe4e-4f1e-99ff-aa8f61d77c2a

>  <Version>  (36) 
0

>  <Alias>  (36) 
D-Tza

>  <Type>  (36) 
amino_acid

>  <Smiles>  (36) 
O=C([C@@H](Cc1cscn1)N[*:1])[*:2]

>  <ProtectedSmiles>  (36) 
O=C(N[C@H](Cc1cscn1)C(=O)O)OCC1c2ccccc2-c2ccccc21

>  <CAS>  (36) 
205528-33-2

>  <User>  (36) 
sevan.h

>  <StereoComment>  (36) 
as drawn

>  <Name>  (36) 
Fmoc-d-4-thiazolylalanine

>  <Code>  (36) 
D-Tza

>  <AliasLowerCase>  (36) 
d-tza

>  <LatestVersion>  (36) 
0.0

>  <createdAt>  (36) 
2026-01-14T12:15:45.771Z

>  <updatedAt>  (36) 
2026-01-14T12:15:45.771Z

>  <NumRotatableBonds>  (36) 
4

>  <is_N_methyl>  (36) 
False

>  <is_a_methyl>  (36) 
False

>  <is_alpha_aa>  (36) 
True

>  <is_beta_aa>  (36) 
False

>  <is_S100_aa>  (36) 
False

>  <Murcko_SMILES>  (36) 
c1cscn1

$$$$

     RDKit          2D

 10  9  0  0  0  0  0  0  0  0999 V2000
    6.4952    0.7500    0.0000 C   0  0  0  0  0  0  0  0  0  0  0  0
    5.1962   -0.0000    0.0000 C   0  0  0  0  0  0  0  0  0  0  0  0
    5.1962   -1.5000    0.0000 C   0  0  0  0  0  0  0  0  0  0  0  0
    3.8971    0.7500    0.0000 C   0  0  0  0  0  0  0  0  0  0  0  0
    2.5981   -0.0000    0.0000 C   0  0  0  0  0  0  0  0  0  0  0  0
    1.2990    0.7500    0.0000 C   0  0  0  0  0  0  0  0  0  0  0  0
    1.2990    2.2500    0.0000 O   0  0  0  0  0  0  0  0  0  0  0  0
    0.0000    0.0000    0.0000 R   0  0  0  0  0  1  0  0  0  2  0  0
    3.8971    2.2500    0.0000 N   0  0  0  0  0  0  0  0  0  0  0  0
    5.1962    3.0000    0.0000 R   0  0  0  0  0  1  0  0  0  1  0  0
  1  2  1  0
  2  3  1  0
  2  4  1  0
  4  5  1  6
  5  6  1  0
  6  7  2  0
  6  8  1  0
  4  9  1  0
  9 10  1  0
M  END
>  <id>  (37) 
c0a7b0ca-973a-4fda-bbde-d7c200547225

>  <Version>  (37) 
0

>  <Alias>  (37) 
(3S)-4MePentAcid

>  <Type>  (37) 
amino_acid

>  <Smiles>  (37) 
CC(C)[C@H](CC(=O)[*:2])N[*:1]

>  <ProtectedSmiles>  (37) 
CC(C)[C@H](CC(=O)O)NC(=O)OCC1c2ccccc2-c2ccccc21

>  <CAS>  (37) 
266318-79-0

>  <User>  (37) 
angelica.l

>  <StereoComment>  (37) 
as drawn

>  <Name>  (37) 
(3S)-3-({[(9H-fluoren-9-yl)methoxy]carbonyl}amino)-4-methylpentanoic acid

>  <Code>  (37) 
(3S)-4MePentAcid

>  <AliasLowerCase>  (37) 
(3s)-4mepentacid

>  <LatestVersion>  (37) 
0.0

>  <createdAt>  (37) 
2026-01-14T11:35:18.560Z

>  <updatedAt>  (37) 
2026-01-14T11:35:18.560Z

>  <NumRotatableBonds>  (37) 
4

>  <is_N_methyl>  (37) 
False

>  <is_a_methyl>  (37) 
False

>  <is_alpha_aa>  (37) 
False

>  <is_beta_aa>  (37) 
True

>  <is_S100_aa>  (37) 
False

>  <Murcko_SMILES>  (37) 


$$$$

     RDKit          2D

 15 16  0  0  0  0  0  0  0  0999 V2000
    2.7990   -0.3481    0.0000 O   0  0  0  0  0  0  0  0  0  0  0  0
    2.7990   -1.8481    0.0000 C   0  0  0  0  0  0  0  0  0  0  0  0
    1.5000   -2.5981    0.0000 C   0  0  0  0  0  0  0  0  0  0  0  0
    0.7500   -1.2990    0.0000 C   0  0  0  0  0  0  0  0  0  0  0  0
    1.5000    0.0000    0.0000 C   0  0  0  0  0  0  0  0  0  0  0  0
    0.7500    1.2990    0.0000 C   0  0  0  0  0  0  0  0  0  0  0  0
   -0.7500    1.2990    0.0000 C   0  0  0  0  0  0  0  0  0  0  0  0
   -1.5000    0.0000    0.0000 C   0  0  0  0  0  0  0  0  0  0  0  0
   -3.0000    0.0000    0.0000 N   0  0  0  0  0  0  0  0  0  0  0  0
   -3.7500    1.2990    0.0000 R   0  0  0  0  0  1  0  0  0  1  0  0
   -0.7500   -1.2990    0.0000 C   0  0  0  0  0  0  0  0  0  0  0  0
    0.2010   -3.3481    0.0000 C   0  0  0  0  0  0  0  0  0  0  0  0
    0.9510   -4.6471    0.0000 C   0  0  0  0  0  0  0  0  0  0  0  0
    2.2500   -3.8971    0.0000 C   0  0  0  0  0  0  0  0  0  0  0  0
    4.0981   -2.5981    0.0000 R   0  0  0  0  0  1  0  0  0  2  0  0
  1  2  2  0
  2  3  1  0
  3  4  1  0
  4  5  2  0
  5  6  1  0
  6  7  2  0
  7  8  1  0
  8  9  1  0
  9 10  1  0
  8 11  2  0
  3 12  1  0
 12 13  1  0
 13 14  1  0
  2 15  1  0
 14  3  1  0
 11  4  1  0
M  END
>  <id>  (38) 
421fb61e-b9e8-43d2-8bfe-de645b8556a8

>  <Version>  (38) 
0

>  <Alias>  (38) 
3AmPCBCA

>  <Type>  (38) 
amino_acid

>  <Smiles>  (38) 
O=C(C1(c2cccc(N[*:1])c2)CCC1)[*:2]

>  <ProtectedSmiles>  (38) 
O=C(Nc1cccc(C2(C(=O)O)CCC2)c1)OCC1c2ccccc2-c2ccccc21

>  <CAS>  (38) 
2229448-00-2

>  <User>  (38) 
Sevan.habeshian@orbismedicines.com

>  <StereoComment>  (38) 
as drawn

>  <Name>  (38) 
N/A

>  <Code>  (38) 
3AmPCBCA

>  <AliasLowerCase>  (38) 
3ampcbca

>  <LatestVersion>  (38) 
0.0

>  <createdAt>  (38) 
2026-02-13T09:56:36.287Z

>  <updatedAt>  (38) 
2026-02-13T09:56:36.287Z

>  <NumRotatableBonds>  (38) 
3

>  <is_N_methyl>  (38) 
False

>  <is_a_methyl>  (38) 
False

>  <is_alpha_aa>  (38) 
False

>  <is_beta_aa>  (38) 
False

>  <is_S100_aa>  (38) 
False

>  <Murcko_SMILES>  (38) 
c1ccc(C2CCC2)cc1

$$$$

     RDKit          2D

 14 14  0  0  0  0  0  0  0  0999 V2000
    5.2500   -3.8971    0.0000 O   0  0  0  0  0  0  0  0  0  0  0  0
    6.0000   -2.5981    0.0000 C   0  0  0  0  0  0  0  0  0  0  0  0
    5.2500   -1.2990    0.0000 C   0  0  0  0  0  0  0  0  0  0  0  0
    3.7500   -1.2990    0.0000 C   0  0  0  0  0  0  0  0  0  0  0  0
    3.0000    0.0000    0.0000 C   0  0  0  0  0  0  0  0  0  0  0  0
    1.5000    0.0000    0.0000 C   0  0  0  0  0  0  0  0  0  0  0  0
    0.7500   -1.2990    0.0000 C   0  0  0  0  0  0  0  0  0  0  0  0
   -0.7500   -1.2990    0.0000 C   0  0  0  0  0  0  0  0  0  0  0  0
   -1.5000    0.0000    0.0000 C   0  0  0  0  0  0  0  0  0  0  0  0
   -0.7500    1.2990    0.0000 C   0  0  0  0  0  0  0  0  0  0  0  0
    0.7500    1.2990    0.0000 C   0  0  0  0  0  0  0  0  0  0  0  0
    3.0000   -2.5981    0.0000 N   0  0  0  0  0  0  0  0  0  0  0  0
    3.7500   -3.8971    0.0000 R   0  0  0  0  0  1  0  0  0  1  0  0
    7.5000   -2.5981    0.0000 R   0  0  0  0  0  1  0  0  0  2  0  0
  1  2  2  0
  2  3  1  0
  3  4  1  0
  4  5  1  0
  5  6  1  0
  6  7  2  0
  7  8  1  0
  8  9  2  0
  9 10  1  0
 10 11  2  0
  4 12  1  0
 12 13  1  0
  2 14  1  0
 11  6  1  0
M  END
>  <id>  (39) 
fd74b8db-7ef1-4ce5-9093-6a4e4c32ef2e

>  <Version>  (39) 
0

>  <Alias>  (39) 
racB-hPhe

>  <Type>  (39) 
amino_acid

>  <Smiles>  (39) 
O=C(CC(Cc1ccccc1)N[*:1])[*:2]

>  <ProtectedSmiles>  (39) 
O=C(O)CC(Cc1ccccc1)NC(=O)OCC1c2ccccc2-c2ccccc21

>  <CAS>  (39) 
282524-78-1

>  <User>  (39) 
mischa.s

>  <StereoComment>  (39) 
as drawn

>  <Name>  (39) 
racemic Î²-[[(9H-Fluoren-9-ylmethoxy)carbonyl]amino]benzenebutanoic acid

>  <Code>  (39) 
racB-hPhe

>  <AliasLowerCase>  (39) 
racb-hphe

>  <LatestVersion>  (39) 
0.0

>  <createdAt>  (39) 
2026-01-14T11:34:20.461Z

>  <updatedAt>  (39) 
2026-01-14T11:34:20.461Z

>  <NumRotatableBonds>  (39) 
5

>  <is_N_methyl>  (39) 
False

>  <is_a_methyl>  (39) 
False

>  <is_alpha_aa>  (39) 
False

>  <is_beta_aa>  (39) 
True

>  <is_S100_aa>  (39) 
False

>  <Murcko_SMILES>  (39) 
c1ccccc1

$$$$

     RDKit          2D

 13 13  0  0  0  0  0  0  0  0999 V2000
    6.0000    0.0000    0.0000 O   0  0  0  0  0  0  0  0  0  0  0  0
    5.2500   -1.2990    0.0000 C   0  0  0  0  0  0  0  0  0  0  0  0
    3.7500   -1.2990    0.0000 C   0  0  0  0  0  0  0  0  0  0  0  0
    3.0000    0.0000    0.0000 C   0  0  0  0  0  0  0  0  0  0  0  0
    1.5000    0.0000    0.0000 C   0  0  0  0  0  0  0  0  0  0  0  0
    0.7500   -1.2990    0.0000 C   0  0  0  0  0  0  0  0  0  0  0  0
   -0.7500   -1.2990    0.0000 C   0  0  0  0  0  0  0  0  0  0  0  0
   -1.5000    0.0000    0.0000 C   0  0  0  0  0  0  0  0  0  0  0  0
   -0.7500    1.2990    0.0000 N   0  0  0  0  0  0  0  0  0  0  0  0
    0.7500    1.2990    0.0000 C   0  0  0  0  0  0  0  0  0  0  0  0
    3.0000   -2.5981    0.0000 N   0  0  0  0  0  0  0  0  0  0  0  0
    3.7500   -3.8971    0.0000 R   0  0  0  0  0  1  0  0  0  1  0  0
    6.0000   -2.5981    0.0000 R   0  0  0  0  0  1  0  0  0  2  0  0
  1  2  2  0
  2  3  1  0
  3  4  1  0
  4  5  1  0
  5  6  2  0
  6  7  1  0
  7  8  2  0
  8  9  1  0
  9 10  2  0
  3 11  1  0
 11 12  1  0
  2 13  1  0
 10  5  1  0
M  END
>  <id>  (40) 
58d5b12f-7ec6-4e3d-91ff-88441816874f

>  <Version>  (40) 
0

>  <Alias>  (40) 
rac3Pyr

>  <Type>  (40) 
amino_acid

>  <Smiles>  (40) 
O=C(C(Cc1cccnc1)N[*:1])[*:2]

>  <ProtectedSmiles>  (40) 
O=C(NC(Cc1cccnc1)C(=O)O)OCC1c2ccccc2-c2ccccc21

>  <CAS>  (40) 
746672-88-8

>  <User>  (40) 
mischa.s

>  <StereoComment>  (40) 
racemic

>  <Name>  (40) 
racemic Fmoc-3-pyridylalanine

>  <Code>  (40) 
rac3Pyr

>  <AliasLowerCase>  (40) 
rac3pyr

>  <LatestVersion>  (40) 
0.0

>  <createdAt>  (40) 
2026-01-14T11:32:30.651Z

>  <updatedAt>  (40) 
2026-01-14T11:32:30.651Z

>  <NumRotatableBonds>  (40) 
4

>  <is_N_methyl>  (40) 
False

>  <is_a_methyl>  (40) 
False

>  <is_alpha_aa>  (40) 
True

>  <is_beta_aa>  (40) 
False

>  <is_S100_aa>  (40) 
False

>  <Murcko_SMILES>  (40) 
c1ccncc1

$$$$

     RDKit          2D

 13 14  0  0  0  0  0  0  0  0999 V2000
    3.1235   -0.2423    0.0000 O   0  0  0  0  0  0  0  0  0  0  0  0
    2.2418   -1.4558    0.0000 C   0  0  0  0  0  0  0  0  0  0  0  0
    0.7500   -1.2990    0.0000 C   0  0  0  0  0  0  0  0  0  0  0  0
    1.5000    0.0000    0.0000 C   0  0  0  0  0  0  0  0  0  0  0  0
    0.7500    1.2990    0.0000 C   0  0  0  0  0  0  0  0  0  0  0  0
   -0.7500    1.2990    0.0000 C   0  0  0  0  0  0  0  0  0  0  0  0
   -1.5000    0.0000    0.0000 C   0  0  0  0  0  0  0  0  0  0  0  0
   -0.7500   -1.2990    0.0000 C   0  0  0  0  0  0  0  0  0  0  0  0
   -1.2135   -2.7256    0.0000 C   0  0  0  0  0  0  0  0  0  0  0  0
    0.0000   -3.6073    0.0000 N   0  0  0  0  0  0  0  0  0  0  0  0
    0.0000   -5.1073    0.0000 R   0  0  0  0  0  1  0  0  0  1  0  0
    1.2135   -2.7256    0.0000 C   0  0  0  0  0  0  0  0  0  0  0  0
    2.8519   -2.8261    0.0000 R   0  0  0  0  0  1  0  0  0  2  0  0
  1  2  2  0
  3  2  1  6
  3  4  1  0
  4  5  1  0
  5  6  1  0
  6  7  1  0
  8  7  1  1
  8  9  1  0
  9 10  1  0
 10 11  1  0
 10 12  1  0
  2 13  1  0
  8  3  1  0
 12  3  1  0
M  END
>  <id>  (41) 
27f5d195-474d-4a05-9c07-36a7cd8c22d6

>  <Version>  (41) 
0

>  <Alias>  (41) 
(3aS,7aS)IsoindCA

>  <Type>  (41) 
amino_acid

>  <Smiles>  (41) 
O=C([C@@]12CCCC[C@@H]1CN([*:1])C2)[*:2]

>  <ProtectedSmiles>  (41) 
O=C(OCC1c2ccccc2-c2ccccc21)N1C[C@H]2CCCC[C@@]2(C(=O)O)C1

>  <CAS>  (41) 
2138507-49-8

>  <User>  (41) 
Sevan.habeshian@orbismedicines.com

>  <StereoComment>  (41) 
rac-cis

>  <Name>  (41) 
N/A

>  <Code>  (41) 
(3aS,7aS)IsoindCA

>  <AliasLowerCase>  (41) 
(3as,7as)isoindca

>  <LatestVersion>  (41) 
0.0

>  <createdAt>  (41) 
2026-02-13T09:56:35.504Z

>  <updatedAt>  (41) 
2026-02-13T09:56:35.504Z

>  <NumRotatableBonds>  (41) 
1

>  <is_N_methyl>  (41) 
False

>  <is_a_methyl>  (41) 
False

>  <is_alpha_aa>  (41) 
False

>  <is_beta_aa>  (41) 
True

>  <is_S100_aa>  (41) 
False

>  <Murcko_SMILES>  (41) 
C1CC[C@@H]2CNCC2C1

$$$$

     RDKit          2D

 11 11  0  0  0  0  0  0  0  0999 V2000
    3.5260    1.2990    0.0000 O   0  0  0  0  0  0  0  0  0  0  0  0
    2.7760    0.0000    0.0000 C   0  0  0  0  0  0  0  0  0  0  0  0
    1.2760    0.0000    0.0000 C   0  0  0  0  0  0  0  0  0  0  0  0
    0.3943    1.2135    0.0000 C   0  0  0  0  0  0  0  0  0  0  0  0
   -1.0323    0.7500    0.0000 C   0  0  0  0  0  0  0  0  0  0  0  0
   -2.2458    1.6317    0.0000 C   0  0  0  0  0  0  0  0  0  0  0  0
   -2.0890    3.1235    0.0000 N   0  0  0  0  0  0  0  0  0  0  0  0
   -3.3025    4.0051    0.0000 R   0  0  0  0  0  1  0  0  0  1  0  0
   -1.0323   -0.7500    0.0000 O   0  0  0  0  0  0  0  0  0  0  0  0
    0.3943   -1.2135    0.0000 N   0  0  0  0  0  0  0  0  0  0  0  0
    3.5260   -1.2990    0.0000 R   0  0  0  0  0  1  0  0  0  2  0  0
  1  2  2  0
  2  3  1  0
  3  4  1  0
  4  5  2  0
  5  6  1  0
  6  7  1  0
  7  8  1  0
  5  9  1  0
  9 10  1  0
  2 11  1  0
 10  3  2  0
M  END
>  <id>  (42) 
3dae66e8-3fda-45bf-ae1b-c7050f9e4e21

>  <Version>  (42) 
0

>  <Alias>  (42) 
OxazCA

>  <Type>  (42) 
amino_acid

>  <Smiles>  (42) 
O=C(c1cc(CN[*:1])on1)[*:2]

>  <ProtectedSmiles>  (42) 
O=C(NCc1cc(C(=O)O)no1)OCC1c2ccccc2-c2ccccc21

>  <CAS>  (42) 
503469-95-2

>  <User>  (42) 
Sevan.habeshian@orbismedicines.com

>  <StereoComment>  (42) 
as drawn

>  <Name>  (42) 
N/A

>  <Code>  (42) 
OxazCA

>  <AliasLowerCase>  (42) 
oxazca

>  <LatestVersion>  (42) 
0.0

>  <createdAt>  (42) 
2026-02-13T09:56:36.376Z

>  <updatedAt>  (42) 
2026-02-13T09:56:36.376Z

>  <NumRotatableBonds>  (42) 
3

>  <is_N_methyl>  (42) 
False

>  <is_a_methyl>  (42) 
False

>  <is_alpha_aa>  (42) 
False

>  <is_beta_aa>  (42) 
False

>  <is_S100_aa>  (42) 
False

>  <Murcko_SMILES>  (42) 
c1cnoc1

$$$$

     RDKit          2D

 14 14  0  0  0  0  0  0  0  0999 V2000
    6.0000    0.0000    0.0000 O   0  0  0  0  0  0  0  0  0  0  0  0
    5.2500   -1.2990    0.0000 C   0  0  0  0  0  0  0  0  0  0  0  0
    3.7500   -1.2990    0.0000 C   0  0  0  0  0  0  0  0  0  0  0  0
    3.0000    0.0000    0.0000 C   0  0  0  0  0  0  0  0  0  0  0  0
    1.5000    0.0000    0.0000 C   0  0  0  0  0  0  0  0  0  0  0  0
    0.7500   -1.2990    0.0000 C   0  0  0  0  0  0  0  0  0  0  0  0
   -0.7500   -1.2990    0.0000 C   0  0  0  0  0  0  0  0  0  0  0  0
   -1.5000    0.0000    0.0000 C   0  0  0  0  0  0  0  0  0  0  0  0
   -3.0000    0.0000    0.0000 Cl  0  0  0  0  0  0  0  0  0  0  0  0
   -0.7500    1.2990    0.0000 C   0  0  0  0  0  0  0  0  0  0  0  0
    0.7500    1.2990    0.0000 C   0  0  0  0  0  0  0  0  0  0  0  0
    3.0000   -2.5981    0.0000 N   0  0  0  0  0  0  0  0  0  0  0  0
    3.7500   -3.8971    0.0000 R   0  0  0  0  0  1  0  0  0  1  0  0
    6.0000   -2.5981    0.0000 R   0  0  0  0  0  1  0  0  0  2  0  0
  1  2  2  0
  2  3  1  0
  3  4  1  6
  4  5  1  0
  5  6  2  0
  6  7  1  0
  7  8  2  0
  8  9  1  0
  8 10  1  0
 10 11  2  0
  3 12  1  0
 12 13  1  0
  2 14  1  0
 11  5  1  0
M  END
>  <id>  (43) 
71f1e39a-b356-42d0-9935-b25f1da78a8b

>  <Version>  (43) 
0

>  <Alias>  (43) 
D-4ClPhe

>  <Type>  (43) 
amino_acid

>  <Smiles>  (43) 
O=C([C@@H](Cc1ccc(Cl)cc1)N[*:1])[*:2]

>  <ProtectedSmiles>  (43) 
O=C(N[C@H](Cc1ccc(Cl)cc1)C(=O)O)OCC1c2ccccc2-c2ccccc21

>  <CAS>  (43) 
142994-19-2

>  <User>  (43) 
angelica.l

>  <StereoComment>  (43) 
as drawn

>  <Name>  (43) 
(R)-2-((((9H-Fluoren-9-yl)methoxy)carbonyl)amino)-3-(4-chlorophenyl)propanoic acid

>  <Code>  (43) 
D-4ClPhe

>  <AliasLowerCase>  (43) 
d-4clphe

>  <LatestVersion>  (43) 
0.0

>  <createdAt>  (43) 
2026-01-14T11:35:45.362Z

>  <updatedAt>  (43) 
2026-01-14T11:35:45.362Z

>  <NumRotatableBonds>  (43) 
4

>  <is_N_methyl>  (43) 
False

>  <is_a_methyl>  (43) 
False

>  <is_alpha_aa>  (43) 
True

>  <is_beta_aa>  (43) 
False

>  <is_S100_aa>  (43) 
False

>  <Murcko_SMILES>  (43) 
c1ccccc1

$$$$

     RDKit          2D

  8  7  0  0  0  0  0  0  0  0999 V2000
    1.2990   -2.2500    0.0000 O   0  0  0  0  0  0  0  0  0  0  0  0
    2.5981   -1.5000    0.0000 C   0  0  0  0  0  0  0  0  0  0  0  0
    2.5981   -0.0000    0.0000 C   0  0  0  0  0  0  0  0  0  0  0  0
    3.8971    0.7500    0.0000 C   0  0  0  0  0  0  0  0  0  0  0  0
    5.1962   -0.0000    0.0000 O   0  0  0  0  0  0  0  0  0  0  0  0
    1.2990    0.7500    0.0000 N   0  0  0  0  0  0  0  0  0  0  0  0
    0.0000    0.0000    0.0000 R   0  0  0  0  0  1  0  0  0  1  0  0
    3.8971   -2.2500    0.0000 R   0  0  0  0  0  1  0  0  0  2  0  0
  1  2  2  0
  2  3  1  0
  3  4  1  6
  4  5  1  0
  3  6  1  0
  6  7  1  0
  2  8  1  0
M  END
>  <id>  (44) 
f58dc438-bacb-4a47-b1db-0f6c7ce97016

>  <Version>  (44) 
0

>  <Alias>  (44) 
D-Ser

>  <Type>  (44) 
amino_acid

>  <Smiles>  (44) 
O=C([C@@H](CO)N[*:1])[*:2]

>  <ProtectedSmiles>  (44) 
CC(C)(C)OC[C@@H](NC(=O)OCC1c2ccccc2-c2ccccc21)C(=O)O

>  <CAS>  (44) 
128107-47-1

>  <User>  (44) 
sevan.h

>  <StereoComment>  (44) 
as drawn

>  <Name>  (44) 
Fmoc-D-Ser(tBu)-OH

>  <Code>  (44) 
D-Ser

>  <AliasLowerCase>  (44) 
d-ser

>  <LatestVersion>  (44) 
0.0

>  <createdAt>  (44) 
2026-01-14T12:17:12.435Z

>  <updatedAt>  (44) 
2026-01-14T12:17:12.435Z

>  <NumRotatableBonds>  (44) 
3

>  <is_N_methyl>  (44) 
False

>  <is_a_methyl>  (44) 
False

>  <is_alpha_aa>  (44) 
True

>  <is_beta_aa>  (44) 
False

>  <is_S100_aa>  (44) 
False

>  <Murcko_SMILES>  (44) 


$$$$

     RDKit          2D

 10 10  0  0  0  0  0  0  0  0999 V2000
    2.5607   -2.5981    0.0000 O   0  0  0  0  0  0  0  0  0  0  0  0
    3.3107   -1.2990    0.0000 C   0  0  0  0  0  0  0  0  0  0  0  0
    2.5607    0.0000    0.0000 C   0  0  0  0  0  0  0  0  0  0  0  0
    1.0607    0.0000    0.0000 C   0  0  0  0  0  0  0  0  0  0  0  0
   -0.0000   -1.0607    0.0000 C   0  0  0  0  0  0  0  0  0  0  0  0
   -1.0607    0.0000    0.0000 C   0  0  0  0  0  0  0  0  0  0  0  0
   -2.5607    0.0000    0.0000 N   0  0  0  0  0  0  0  0  0  0  0  0
   -3.3107    1.2990    0.0000 R   0  0  0  0  0  1  0  0  0  1  0  0
    0.0000    1.0607    0.0000 C   0  0  0  0  0  0  0  0  0  0  0  0
    4.8107   -1.2990    0.0000 R   0  0  0  0  0  1  0  0  0  2  0  0
  1  2  2  0
  2  3  1  0
  3  4  1  0
  4  5  1  0
  5  6  1  0
  6  7  1  0
  7  8  1  0
  6  9  1  0
  2 10  1  0
  9  4  1  0
M  END
>  <id>  (45) 
5877bc21-f3bb-4b9f-97c5-e7acf7a3da82

>  <Version>  (45) 
0

>  <Alias>  (45) 
CbutAcOH

>  <Type>  (45) 
amino_acid

>  <Smiles>  (45) 
O=C(CC1CC(N[*:1])C1)[*:2]

>  <ProtectedSmiles>  (45) 
O=C(O)CC1CC(NC(=O)OCC2c3ccccc3-c3ccccc32)C1

>  <CAS>  (45) 
2137718-93-3

>  <User>  (45) 
gontran.s

>  <StereoComment>  (45) 
as drawn

>  <Name>  (45) 
2-[3-({[(9H-fluoren-9-yl)methoxy]carbonyl}amino)cyclobutyl]acetic acid

>  <Code>  (45) 
CbutAcOH

>  <AliasLowerCase>  (45) 
cbutacoh

>  <LatestVersion>  (45) 
0.0

>  <createdAt>  (45) 
2026-01-14T11:38:34.009Z

>  <updatedAt>  (45) 
2026-01-14T11:38:34.009Z

>  <NumRotatableBonds>  (45) 
3

>  <is_N_methyl>  (45) 
False

>  <is_a_methyl>  (45) 
False

>  <is_alpha_aa>  (45) 
False

>  <is_beta_aa>  (45) 
False

>  <is_S100_aa>  (45) 
False

>  <Murcko_SMILES>  (45) 
C1CCC1

$$$$

     RDKit          2D

 14 14  0  0  0  0  0  0  0  0999 V2000
    5.2500   -3.8971    0.0000 O   0  0  0  0  0  0  0  0  0  0  0  0
    6.0000   -2.5981    0.0000 C   0  0  0  0  0  0  0  0  0  0  0  0
    5.2500   -1.2990    0.0000 C   0  0  0  0  0  0  0  0  0  0  0  0
    3.7500   -1.2990    0.0000 C   0  0  0  0  0  0  0  0  0  0  0  0
    3.0000    0.0000    0.0000 C   0  0  0  0  0  0  0  0  0  0  0  0
    1.5000    0.0000    0.0000 C   0  0  0  0  0  0  0  0  0  0  0  0
    0.7500   -1.2990    0.0000 C   0  0  0  0  0  0  0  0  0  0  0  0
   -0.7500   -1.2990    0.0000 C   0  0  0  0  0  0  0  0  0  0  0  0
   -1.5000    0.0000    0.0000 C   0  0  0  0  0  0  0  0  0  0  0  0
   -0.7500    1.2990    0.0000 C   0  0  0  0  0  0  0  0  0  0  0  0
    0.7500    1.2990    0.0000 N   0  0  0  0  0  0  0  0  0  0  0  0
    6.0000    0.0000    0.0000 N   0  0  0  0  0  0  0  0  0  0  0  0
    7.5000    0.0000    0.0000 R   0  0  0  0  0  1  0  0  0  1  0  0
    7.5000   -2.5981    0.0000 R   0  0  0  0  0  1  0  0  0  2  0  0
  1  2  2  0
  2  3  1  0
  3  4  1  0
  4  5  1  0
  5  6  1  0
  6  7  2  0
  7  8  1  0
  8  9  2  0
  9 10  1  0
 10 11  2  0
  3 12  1  0
 12 13  1  0
  2 14  1  0
 11  6  1  0
M  END
>  <id>  (46) 
195703a4-1d41-4bcd-9e1e-c3e75cfb50f2

>  <Version>  (46) 
0

>  <Alias>  (46) 
rac-h2Pyr

>  <Type>  (46) 
amino_acid

>  <Smiles>  (46) 
O=C(C(CCc1ccccn1)N[*:1])[*:2]

>  <ProtectedSmiles>  (46) 
O=C(NC(CCc1ccccn1)C(=O)O)OCC1c2ccccc2-c2ccccc21

>  <CAS>  (46) 
1694526-75-4

>  <User>  (46) 
Sevan.habeshian@orbismedicines.com

>  <StereoComment>  (46) 
as drawn

>  <Name>  (46) 
N/A

>  <Code>  (46) 
rac-h2Pyr

>  <AliasLowerCase>  (46) 
rac-h2pyr

>  <LatestVersion>  (46) 
0.0

>  <createdAt>  (46) 
2026-02-13T09:56:35.503Z

>  <updatedAt>  (46) 
2026-02-13T09:56:35.503Z

>  <NumRotatableBonds>  (46) 
5

>  <is_N_methyl>  (46) 
False

>  <is_a_methyl>  (46) 
False

>  <is_alpha_aa>  (46) 
True

>  <is_beta_aa>  (46) 
False

>  <is_S100_aa>  (46) 
False

>  <Murcko_SMILES>  (46) 
c1ccncc1

$$$$

     RDKit          2D

 15 15  0  0  0  0  0  0  0  0999 V2000
    4.5000    0.0000    0.0000 N   0  0  0  0  0  0  0  0  0  0  0  0
    3.0000    0.0000    0.0000 C   0  0  0  0  0  0  0  0  0  0  0  0
    1.5000    0.0000    0.0000 C   0  0  0  0  0  0  0  0  0  0  0  0
    0.7500   -1.2990    0.0000 C   0  0  0  0  0  0  0  0  0  0  0  0
   -0.7500   -1.2990    0.0000 C   0  0  0  0  0  0  0  0  0  0  0  0
   -1.5000    0.0000    0.0000 C   0  0  0  0  0  0  0  0  0  0  0  0
   -0.7500    1.2990    0.0000 C   0  0  0  0  0  0  0  0  0  0  0  0
   -1.5000    2.5981    0.0000 C   0  0  0  0  0  0  0  0  0  0  0  0
   -0.7500    3.8971    0.0000 C   0  0  0  0  0  0  0  0  0  0  0  0
    0.7500    3.8971    0.0000 N   0  0  0  0  0  0  0  0  0  0  0  0
    1.5000    5.1962    0.0000 R   0  0  0  0  0  1  0  0  0  1  0  0
   -1.5000    5.1962    0.0000 C   0  0  0  0  0  0  0  0  0  0  0  0
   -3.0000    5.1962    0.0000 O   0  0  0  0  0  0  0  0  0  0  0  0
   -0.7500    6.4952    0.0000 R   0  0  0  0  0  1  0  0  0  2  0  0
    0.7500    1.2990    0.0000 C   0  0  0  0  0  0  0  0  0  0  0  0
  1  2  3  0
  2  3  1  0
  3  4  2  0
  4  5  1  0
  5  6  2  0
  6  7  1  0
  7  8  1  0
  9  8  1  1
  9 10  1  0
 10 11  1  0
  9 12  1  0
 12 13  2  0
 12 14  1  0
  7 15  2  0
 15  3  1  0
M  END
>  <id>  (47) 
901207de-0f59-476e-8c5d-b73f73fc8aeb

>  <Version>  (47) 
0

>  <Alias>  (47) 
3CNPhe

>  <Type>  (47) 
amino_acid

>  <Smiles>  (47) 
N#Cc1cccc(C[C@H](N[*:1])C(=O)[*:2])c1

>  <ProtectedSmiles>  (47) 
N#Cc1cccc(C[C@H](NC(=O)OCC2c3ccccc3-c3ccccc32)C(=O)O)c1

>  <CAS>  (47) 
205526-36-9

>  <User>  (47) 
clement.gensous@orbismedicines.com

>  <StereoComment>  (47) 
as drawn

>  <Name>  (47) 
3CNPhe

>  <Code>  (47) 
3CNPhe

>  <AliasLowerCase>  (47) 
3cnphe

>  <LatestVersion>  (47) 
0.0

>  <createdAt>  (47) 
2026-01-15T09:28:35.404Z

>  <updatedAt>  (47) 
2026-01-15T09:28:35.404Z

>  <NumRotatableBonds>  (47) 
4

>  <is_N_methyl>  (47) 
False

>  <is_a_methyl>  (47) 
False

>  <is_alpha_aa>  (47) 
True

>  <is_beta_aa>  (47) 
False

>  <is_S100_aa>  (47) 
False

>  <Murcko_SMILES>  (47) 
c1ccccc1

$$$$

     RDKit          2D

 12 12  0  0  0  0  0  0  0  0999 V2000
    5.7760    0.0000    0.0000 O   0  0  0  0  0  0  0  0  0  0  0  0
    5.0260   -1.2990    0.0000 C   0  0  0  0  0  0  0  0  0  0  0  0
    3.5260   -1.2990    0.0000 C   0  0  0  0  0  0  0  0  0  0  0  0
    2.7760    0.0000    0.0000 C   0  0  0  0  0  0  0  0  0  0  0  0
    1.2760    0.0000    0.0000 C   0  0  0  0  0  0  0  0  0  0  0  0
    0.3943    1.2135    0.0000 C   0  0  0  0  0  0  0  0  0  0  0  0
   -1.0323    0.7500    0.0000 N   0  0  0  0  0  0  0  0  0  0  0  0
   -1.0323   -0.7500    0.0000 C   0  0  0  0  0  0  0  0  0  0  0  0
    0.3943   -1.2135    0.0000 S   0  0  0  0  0  0  0  0  0  0  0  0
    2.7760   -2.5981    0.0000 N   0  0  0  0  0  0  0  0  0  0  0  0
    3.5260   -3.8971    0.0000 R   0  0  0  0  0  1  0  0  0  1  0  0
    5.7760   -2.5981    0.0000 R   0  0  0  0  0  1  0  0  0  2  0  0
  1  2  2  0
  2  3  1  0
  3  4  1  0
  4  5  1  0
  5  6  2  0
  6  7  1  0
  7  8  2  0
  8  9  1  0
  3 10  1  0
 10 11  1  0
  2 12  1  0
  9  5  1  0
M  END
>  <id>  (48) 
648707df-5e6e-438b-835c-27ddb9b1054b

>  <Version>  (48) 
0

>  <Alias>  (48) 
rac-5Tza

>  <Type>  (48) 
amino_acid

>  <Smiles>  (48) 
O=C(C(Cc1cncs1)N[*:1])[*:2]

>  <ProtectedSmiles>  (48) 
O=C(NC(Cc1cncs1)C(=O)O)OCC1c2ccccc2-c2ccccc21

>  <CAS>  (48) 
1379836-38-0

>  <User>  (48) 
Sevan.habeshian@orbismedicines.com

>  <StereoComment>  (48) 
as drawn

>  <Name>  (48) 
N/A

>  <Code>  (48) 
rac-5Tza

>  <AliasLowerCase>  (48) 
rac-5tza

>  <LatestVersion>  (48) 
0.0

>  <createdAt>  (48) 
2026-02-13T09:56:35.392Z

>  <updatedAt>  (48) 
2026-02-13T09:56:35.392Z

>  <NumRotatableBonds>  (48) 
4

>  <is_N_methyl>  (48) 
False

>  <is_a_methyl>  (48) 
False

>  <is_alpha_aa>  (48) 
True

>  <is_beta_aa>  (48) 
False

>  <is_S100_aa>  (48) 
False

>  <Murcko_SMILES>  (48) 
c1cscn1

$$$$

     RDKit          2D

 13 12  0  0  0  0  0  0  0  0999 V2000
    9.0933    2.2500    0.0000 N   0  0  0  0  0  0  0  0  0  0  0  0
    9.0933    0.7500    0.0000 C   0  0  0  0  0  0  0  0  0  0  0  0
   10.3923   -0.0000    0.0000 N   0  0  0  0  0  0  0  0  0  0  0  0
    7.7942   -0.0000    0.0000 N   0  0  0  0  0  0  0  0  0  0  0  0
    6.4952    0.7500    0.0000 C   0  0  0  0  0  0  0  0  0  0  0  0
    5.1962   -0.0000    0.0000 C   0  0  0  0  0  0  0  0  0  0  0  0
    3.8971    0.7500    0.0000 C   0  0  0  0  0  0  0  0  0  0  0  0
    2.5981   -0.0000    0.0000 C   0  0  0  0  0  0  0  0  0  0  0  0
    1.2990    0.7500    0.0000 N   0  0  0  0  0  0  0  0  0  0  0  0
    0.0000    0.0000    0.0000 R   0  0  0  0  0  1  0  0  0  1  0  0
    2.5981   -1.5000    0.0000 C   0  0  0  0  0  0  0  0  0  0  0  0
    1.2990   -2.2500    0.0000 O   0  0  0  0  0  0  0  0  0  0  0  0
    3.8971   -2.2500    0.0000 R   0  0  0  0  0  1  0  0  0  2  0  0
  1  2  2  0
  2  3  1  0
  2  4  1  0
  4  5  1  0
  5  6  1  0
  6  7  1  0
  8  7  1  6
  8  9  1  0
  9 10  1  0
  8 11  1  0
 11 12  2  0
 11 13  1  0
M  END
>  <id>  (49) 
09aa6c55-6075-487e-b009-cd912699de56

>  <Version>  (49) 
0

>  <Alias>  (49) 
D-Arg_UP

>  <Type>  (49) 
amino_acid

>  <Smiles>  (49) 
N=C(N)NCCC[C@@H](N[*:1])C(=O)[*:2]

>  <ProtectedSmiles>  (49) 
N=C(N)NCCC[C@@H](NC(=O)OCC1c2ccccc2-c2ccccc21)C(=O)O

>  <CAS>  (49) 
130752-32-8

>  <User>  (49) 
Sevan.habeshian@orbismedicines.com

>  <StereoComment>  (49) 
as drawn

>  <Name>  (49) 
N/A

>  <Code>  (49) 
D-Arg_UP

>  <AliasLowerCase>  (49) 
d-arg_up

>  <LatestVersion>  (49) 
0.0

>  <createdAt>  (49) 
2026-02-13T09:56:35.392Z

>  <updatedAt>  (49) 
2026-02-13T09:56:35.392Z

>  <NumRotatableBonds>  (49) 
6

>  <is_N_methyl>  (49) 
False

>  <is_a_methyl>  (49) 
False

>  <is_alpha_aa>  (49) 
True

>  <is_beta_aa>  (49) 
False

>  <is_S100_aa>  (49) 
False

>  <Murcko_SMILES>  (49) 


$$$$

     RDKit          2D

 14 14  0  0  0  0  0  0  0  0999 V2000
    1.5000   -2.5981    0.0000 O   0  0  0  0  0  0  0  0  0  0  0  0
    3.0000   -2.5981    0.0000 C   0  0  0  0  0  0  0  0  0  0  0  0
    3.7500   -1.2990    0.0000 C   0  0  0  0  0  0  0  0  0  0  0  0
    5.2500   -1.2990    0.0000 C   0  0  0  0  0  0  0  0  0  0  0  0
    6.0000   -2.5981    0.0000 N   0  0  0  0  0  0  0  0  0  0  0  0
    7.5000   -2.5981    0.0000 R   0  0  0  0  0  1  0  0  0  1  0  0
    3.0000    0.0000    0.0000 C   0  0  0  0  0  0  0  0  0  0  0  0
    1.5000    0.0000    0.0000 C   0  0  0  0  0  0  0  0  0  0  0  0
    0.7500   -1.2990    0.0000 C   0  0  0  0  0  0  0  0  0  0  0  0
   -0.7500   -1.2990    0.0000 C   0  0  0  0  0  0  0  0  0  0  0  0
   -1.5000    0.0000    0.0000 C   0  0  0  0  0  0  0  0  0  0  0  0
   -0.7500    1.2990    0.0000 C   0  0  0  0  0  0  0  0  0  0  0  0
    0.7500    1.2990    0.0000 C   0  0  0  0  0  0  0  0  0  0  0  0
    3.7500   -3.8971    0.0000 R   0  0  0  0  0  1  0  0  0  2  0  0
  1  2  2  0
  2  3  1  0
  3  4  1  0
  4  5  1  0
  5  6  1  0
  3  7  1  0
  7  8  1  0
  8  9  2  0
  9 10  1  0
 10 11  2  0
 11 12  1  0
 12 13  2  0
  2 14  1  0
 13  8  1  0
M  END
>  <id>  (50) 
f5c9c9e7-0f41-4d34-8e72-28eda12c42f3

>  <Version>  (50) 
0

>  <Alias>  (50) 
rac2Bzl3APA

>  <Type>  (50) 
amino_acid

>  <Smiles>  (50) 
O=C(C(CN[*:1])Cc1ccccc1)[*:2]

>  <ProtectedSmiles>  (50) 
O=C(NCC(Cc1ccccc1)C(=O)O)OCC1c2ccccc2-c2ccccc21

>  <CAS>  (50) 
683217-58-5

>  <User>  (50) 
mischa.s

>  <StereoComment>  (50) 
as drawn

>  <Name>  (50) 
2-benzyl-3-({[(9H-fluoren-9-yl)methoxy]carbonyl}amino)propanoic acid

>  <Code>  (50) 
rac2Bzl3APA

>  <AliasLowerCase>  (50) 
rac2bzl3apa

>  <LatestVersion>  (50) 
0.0

>  <createdAt>  (50) 
2026-01-14T11:35:30.711Z

>  <updatedAt>  (50) 
2026-01-14T11:35:30.711Z

>  <NumRotatableBonds>  (50) 
5

>  <is_N_methyl>  (50) 
False

>  <is_a_methyl>  (50) 
False

>  <is_alpha_aa>  (50) 
False

>  <is_beta_aa>  (50) 
True

>  <is_S100_aa>  (50) 
False

>  <Murcko_SMILES>  (50) 
c1ccccc1

$$$$

     RDKit          2D

 13 13  0  0  0  0  0  0  0  0999 V2000
    3.0000   -1.5000    0.0000 C   0  0  0  0  0  0  0  0  0  0  0  0
    3.0000    0.0000    0.0000 C   0  0  0  0  0  0  0  0  0  0  0  0
    3.0000    1.5000    0.0000 C   0  0  0  0  0  0  0  0  0  0  0  0
    4.5000    0.0000    0.0000 C   0  0  0  0  0  0  0  0  0  0  0  0
    5.2500   -1.2990    0.0000 O   0  0  0  0  0  0  0  0  0  0  0  0
    5.2500    1.2990    0.0000 R   0  0  0  0  0  1  0  0  0  2  0  0
    1.5000    0.0000    0.0000 N   0  0  0  0  0  0  0  0  0  0  0  0
    0.7500   -1.2990    0.0000 C   0  0  0  0  0  0  0  0  0  0  0  0
   -0.7500   -1.2990    0.0000 C   0  0  0  0  0  0  0  0  0  0  0  0
   -1.5000    0.0000    0.0000 N   0  0  0  0  0  0  0  0  0  0  0  0
   -3.0000    0.0000    0.0000 R   0  0  0  0  0  1  0  0  0  1  0  0
   -0.7500    1.2990    0.0000 C   0  0  0  0  0  0  0  0  0  0  0  0
    0.7500    1.2990    0.0000 C   0  0  0  0  0  0  0  0  0  0  0  0
  1  2  1  0
  2  3  1  0
  2  4  1  0
  4  5  2  0
  4  6  1  0
  2  7  1  0
  7  8  1  0
  8  9  1  0
  9 10  1  0
 10 11  1  0
 10 12  1  0
 12 13  1  0
 13  7  1  0
M  END
>  <id>  (51) 
e1d8438c-5666-42a7-82f5-acdc179fbd2d

>  <Version>  (51) 
0

>  <Alias>  (51) 
Pip2MePa

>  <Type>  (51) 
amino_acid

>  <Smiles>  (51) 
CC(C)(C(=O)[*:2])N1CCN([*:1])CC1

>  <ProtectedSmiles>  (51) 
CC(C)(C(=O)O)N1CCN(C(=O)OCC2c3ccccc3-c3ccccc32)CC1

>  <CAS>  (51) 
2138005-68-0

>  <User>  (51) 
mischa.s

>  <StereoComment>  (51) 
as drawn

>  <Name>  (51) 
2-(4-{[(9H-fluoren-9-yl)methoxy]carbonyl}piperazin-1-yl)-2-methylpropanoic acid

>  <Code>  (51) 
Pip2MePa

>  <AliasLowerCase>  (51) 
pip2mepa

>  <LatestVersion>  (51) 
0.0

>  <createdAt>  (51) 
2026-01-14T11:37:20.945Z

>  <updatedAt>  (51) 
2026-01-14T11:37:20.945Z

>  <NumRotatableBonds>  (51) 
2

>  <is_N_methyl>  (51) 
False

>  <is_a_methyl>  (51) 
False

>  <is_alpha_aa>  (51) 
False

>  <is_beta_aa>  (51) 
False

>  <is_S100_aa>  (51) 
False

>  <Murcko_SMILES>  (51) 
C1CNCCN1

$$$$

     RDKit          2D

 10 10  0  0  0  0  0  0  0  0999 V2000
    5.3660    0.0000    0.0000 O   0  0  0  0  0  0  0  0  0  0  0  0
    4.6160   -1.2990    0.0000 C   0  0  0  0  0  0  0  0  0  0  0  0
    3.1160   -1.2990    0.0000 C   0  0  0  0  0  0  0  0  0  0  0  0
    2.3660    0.0000    0.0000 C   0  0  0  0  0  0  0  0  0  0  0  0
    0.8660    0.0000    0.0000 C   0  0  0  0  0  0  0  0  0  0  0  0
   -0.4330    0.7500    0.0000 C   0  0  0  0  0  0  0  0  0  0  0  0
   -0.4330   -0.7500    0.0000 C   0  0  0  0  0  0  0  0  0  0  0  0
    2.3660   -2.5981    0.0000 N   0  0  0  0  0  0  0  0  0  0  0  0
    3.1160   -3.8971    0.0000 R   0  0  0  0  0  1  0  0  0  1  0  0
    5.3660   -2.5981    0.0000 R   0  0  0  0  0  1  0  0  0  2  0  0
  1  2  2  0
  2  3  1  0
  3  4  1  0
  4  5  1  0
  5  6  1  0
  6  7  1  0
  3  8  1  0
  8  9  1  0
  2 10  1  0
  7  5  1  0
M  END
>  <id>  (52) 
f1fbcf02-f500-424f-8daf-d12cdb577df5

>  <Version>  (52) 
0

>  <Alias>  (52) 
raccPropAla

>  <Type>  (52) 
amino_acid

>  <Smiles>  (52) 
O=C(C(CC1CC1)N[*:1])[*:2]

>  <ProtectedSmiles>  (52) 
O=C(NC(CC1CC1)C(=O)O)OCC1c2ccccc2-c2ccccc21

>  <CAS>  (52) 
1219163-22-0

>  <User>  (52) 
Sevan.habeshian@orbismedicines.com

>  <StereoComment>  (52) 
as drawn

>  <Name>  (52) 
N/A

>  <Code>  (52) 
raccPropAla

>  <AliasLowerCase>  (52) 
raccpropala

>  <LatestVersion>  (52) 
0.0

>  <createdAt>  (52) 
2026-02-13T09:56:35.394Z

>  <updatedAt>  (52) 
2026-02-13T09:56:35.394Z

>  <NumRotatableBonds>  (52) 
4

>  <is_N_methyl>  (52) 
False

>  <is_a_methyl>  (52) 
False

>  <is_alpha_aa>  (52) 
True

>  <is_beta_aa>  (52) 
False

>  <is_S100_aa>  (52) 
False

>  <Murcko_SMILES>  (52) 
C1CC1

$$$$

     RDKit          2D

 14 14  0  0  0  0  0  0  0  0999 V2000
    6.0000    0.0000    0.0000 O   0  0  0  0  0  0  0  0  0  0  0  0
    5.2500   -1.2990    0.0000 C   0  0  0  0  0  0  0  0  0  0  0  0
    3.7500   -1.2990    0.0000 C   0  0  0  0  0  0  0  0  0  0  0  0
    3.0000    0.0000    0.0000 C   0  0  0  0  0  0  0  0  0  0  0  0
    1.5000    0.0000    0.0000 C   0  0  0  0  0  0  0  0  0  0  0  0
    0.7500   -1.2990    0.0000 C   0  0  0  0  0  0  0  0  0  0  0  0
   -0.7500   -1.2990    0.0000 C   0  0  0  0  0  0  0  0  0  0  0  0
   -1.5000    0.0000    0.0000 C   0  0  0  0  0  0  0  0  0  0  0  0
   -3.0000    0.0000    0.0000 O   0  0  0  0  0  0  0  0  0  0  0  0
   -0.7500    1.2990    0.0000 C   0  0  0  0  0  0  0  0  0  0  0  0
    0.7500    1.2990    0.0000 C   0  0  0  0  0  0  0  0  0  0  0  0
    3.0000   -2.5981    0.0000 N   0  0  0  0  0  0  0  0  0  0  0  0
    3.7500   -3.8971    0.0000 R   0  0  0  0  0  1  0  0  0  1  0  0
    6.0000   -2.5981    0.0000 R   0  0  0  0  0  1  0  0  0  2  0  0
  1  2  2  0
  2  3  1  0
  3  4  1  6
  4  5  1  0
  5  6  2  0
  6  7  1  0
  7  8  2  0
  8  9  1  0
  8 10  1  0
 10 11  2  0
  3 12  1  0
 12 13  1  0
  2 14  1  0
 11  5  1  0
M  END
>  <id>  (53) 
895efc59-d5a7-4fc2-9def-36f3af5b55c0

>  <Version>  (53) 
0

>  <Alias>  (53) 
D-Tyr_notBu

>  <Type>  (53) 
amino_acid

>  <Smiles>  (53) 
O=C([C@@H](Cc1ccc(O)cc1)N[*:1])[*:2]

>  <ProtectedSmiles>  (53) 
O=C(N[C@H](Cc1ccc(O)cc1)C(=O)O)OCC1c2ccccc2-c2ccccc21

>  <CAS>  (53) 
112883-29-1

>  <User>  (53) 
mischa.s

>  <StereoComment>  (53) 
as drawn

>  <Name>  (53) 
(((9H-Fluoren-9-yl)methoxy)carbonyl)-D-tyrosine

>  <Code>  (53) 
D-Tyr_notBu

>  <AliasLowerCase>  (53) 
d-tyr_notbu

>  <LatestVersion>  (53) 
0.0

>  <createdAt>  (53) 
2026-01-14T11:36:18.961Z

>  <updatedAt>  (53) 
2026-01-14T11:36:18.961Z

>  <NumRotatableBonds>  (53) 
4

>  <is_N_methyl>  (53) 
False

>  <is_a_methyl>  (53) 
False

>  <is_alpha_aa>  (53) 
True

>  <is_beta_aa>  (53) 
False

>  <is_S100_aa>  (53) 
False

>  <Murcko_SMILES>  (53) 
c1ccccc1

$$$$

     RDKit          2D

 14 15  0  0  0  0  0  0  0  0999 V2000
    3.7500    1.2990    0.0000 O   0  0  0  0  0  0  0  0  0  0  0  0
    3.0000    0.0000    0.0000 C   0  0  0  0  0  0  0  0  0  0  0  0
    1.5000    0.0000    0.0000 C   0  0  0  0  0  0  0  0  0  0  0  0
    0.7500   -1.2990    0.0000 C   0  0  0  0  0  0  0  0  0  0  0  0
   -0.7500   -1.2990    0.0000 C   0  0  0  0  0  0  0  0  0  0  0  0
   -1.5000    0.0000    0.0000 N   0  0  0  0  0  0  0  0  0  0  0  0
   -0.7500    1.2990    0.0000 C   0  0  0  0  0  0  0  0  0  0  0  0
    0.7500    1.2990    0.0000 C   0  0  0  0  0  0  0  0  0  0  0  0
    1.5000    2.5981    0.0000 C   0  0  0  0  0  0  0  0  0  0  0  0
    0.7500    3.8971    0.0000 N   0  0  0  0  0  0  0  0  0  0  0  0
    1.5000    5.1962    0.0000 R   0  0  0  0  0  1  0  0  0  1  0  0
   -0.7500    3.8971    0.0000 C   0  0  0  0  0  0  0  0  0  0  0  0
   -1.5000    2.5981    0.0000 C   0  0  0  0  0  0  0  0  0  0  0  0
    3.7500   -1.2990    0.0000 R   0  0  0  0  0  1  0  0  0  2  0  0
  1  2  2  0
  2  3  1  0
  3  4  2  0
  4  5  1  0
  5  6  2  0
  6  7  1  0
  7  8  2  0
  8  9  1  0
  9 10  1  0
 10 11  1  0
 10 12  1  0
 12 13  1  0
  2 14  1  0
  8  3  1  0
 13  7  1  0
M  END
>  <id>  (54) 
457a7152-8100-441f-b9a3-24eb213883d2

>  <Version>  (54) 
0

>  <Alias>  (54) 
TH-1,6-NT-4-CA

>  <Type>  (54) 
amino_acid

>  <Smiles>  (54) 
O=C(c1ccnc2c1CN([*:1])CC2)[*:2]

>  <ProtectedSmiles>  (54) 
O=C(O)c1ccnc2c1CN(C(=O)OCC1c3ccccc3-c3ccccc31)CC2

>  <CAS>  (54) 
2138423-46-6

>  <User>  (54) 
mischa.s

>  <StereoComment>  (54) 
as drawn

>  <Name>  (54) 
6-{[(9H-fluoren-9-yl)methoxy]carbonyl}-5,6,7,8-tetrahydro-1,6-naphthyridine-4-carboxylic acid

>  <Code>  (54) 
TH-1,6-NT-4-CA

>  <AliasLowerCase>  (54) 
th-1,6-nt-4-ca

>  <LatestVersion>  (54) 
0.0

>  <createdAt>  (54) 
2026-01-14T11:33:03.084Z

>  <updatedAt>  (54) 
2026-01-14T11:33:03.084Z

>  <NumRotatableBonds>  (54) 
1

>  <is_N_methyl>  (54) 
False

>  <is_a_methyl>  (54) 
False

>  <is_alpha_aa>  (54) 
False

>  <is_beta_aa>  (54) 
False

>  <is_S100_aa>  (54) 
False

>  <Murcko_SMILES>  (54) 
c1cnc2c(c1)CNCC2

$$$$

     RDKit          2D

 11 11  0  0  0  0  0  0  0  0999 V2000
    2.7760   -2.5981    0.0000 O   0  0  0  0  0  0  0  0  0  0  0  0
    3.5260   -1.2990    0.0000 C   0  0  0  0  0  0  0  0  0  0  0  0
    2.7760    0.0000    0.0000 C   0  0  0  0  0  0  0  0  0  0  0  0
    3.5260    1.2990    0.0000 N   0  0  0  0  0  0  0  0  0  0  0  0
    5.0260    1.2990    0.0000 R   0  0  0  0  0  1  0  0  0  1  0  0
    1.2760    0.0000    0.0000 C   0  0  0  0  0  0  0  0  0  0  0  0
    0.3943    1.2135    0.0000 C   0  0  0  0  0  0  0  0  0  0  0  0
   -1.0323    0.7500    0.0000 C   0  0  0  0  0  0  0  0  0  0  0  0
   -1.0323   -0.7500    0.0000 C   0  0  0  0  0  0  0  0  0  0  0  0
    0.3943   -1.2135    0.0000 C   0  0  0  0  0  0  0  0  0  0  0  0
    5.0260   -1.2990    0.0000 R   0  0  0  0  0  1  0  0  0  2  0  0
  1  2  2  0
  2  3  1  0
  3  4  1  1
  4  5  1  0
  3  6  1  0
  6  7  1  0
  7  8  1  0
  8  9  1  0
  9 10  1  0
  2 11  1  0
 10  6  1  0
M  END
>  <id>  (55) 
98c8fbfc-d2e7-4f8c-9a15-b886f665ec25

>  <Version>  (55) 
0

>  <Alias>  (55) 
D-Cpg

>  <Type>  (55) 
amino_acid

>  <Smiles>  (55) 
O=C([C@H](N[*:1])C1CCCC1)[*:2]

>  <ProtectedSmiles>  (55) 
O=C(N[C@@H](C(=O)O)C1CCCC1)OCC1c2ccccc2-c2ccccc21

>  <CAS>  (55) 
136555-16-3

>  <User>  (55) 
gontran.s

>  <StereoComment>  (55) 
as drawn

>  <Name>  (55) 
Fmoc-D-cyclopentylglycine

>  <Code>  (55) 
D-Cpg

>  <AliasLowerCase>  (55) 
d-cpg

>  <LatestVersion>  (55) 
0.0

>  <createdAt>  (55) 
2026-01-14T11:37:00.390Z

>  <updatedAt>  (55) 
2026-01-14T11:37:00.390Z

>  <NumRotatableBonds>  (55) 
3

>  <is_N_methyl>  (55) 
False

>  <is_a_methyl>  (55) 
False

>  <is_alpha_aa>  (55) 
True

>  <is_beta_aa>  (55) 
False

>  <is_S100_aa>  (55) 
False

>  <Murcko_SMILES>  (55) 
C1CCCC1

$$$$

     RDKit          2D

 11 10  0  0  0  0  0  0  0  0999 V2000
    7.7942   -0.0000    0.0000 N   0  0  0  0  0  0  0  0  0  0  0  0
    6.4952    0.7500    0.0000 C   0  0  0  0  0  0  0  0  0  0  0  0
    6.4952    2.2500    0.0000 O   0  0  0  0  0  0  0  0  0  0  0  0
    5.1962   -0.0000    0.0000 C   0  0  0  0  0  0  0  0  0  0  0  0
    3.8971    0.7500    0.0000 C   0  0  0  0  0  0  0  0  0  0  0  0
    2.5981   -0.0000    0.0000 C   0  0  0  0  0  0  0  0  0  0  0  0
    1.2990    0.7500    0.0000 N   0  0  0  0  0  0  0  0  0  0  0  0
    0.0000    0.0000    0.0000 R   0  0  0  0  0  1  0  0  0  1  0  0
    2.5981   -1.5000    0.0000 C   0  0  0  0  0  0  0  0  0  0  0  0
    1.2990   -2.2500    0.0000 O   0  0  0  0  0  0  0  0  0  0  0  0
    3.8971   -2.2500    0.0000 R   0  0  0  0  0  1  0  0  0  2  0  0
  1  2  1  0
  2  3  2  0
  2  4  1  0
  4  5  1  0
  6  5  1  1
  6  7  1  0
  7  8  1  0
  6  9  1  0
  9 10  2  0
  9 11  1  0
M  END
>  <id>  (56) 
d8be2307-64a4-4a6a-be34-b52a1762a037

>  <Version>  (56) 
0

>  <Alias>  (56) 
Gln

>  <Type>  (56) 
amino_acid

>  <Smiles>  (56) 
NC(=O)CC[C@H](N[*:1])C(=O)[*:2]

>  <ProtectedSmiles>  (56) 
O=C(CC[C@H](NC(=O)OCC1c2ccccc2-c2ccccc21)C(=O)O)NC(c1ccccc1)(c1ccccc1)c1ccccc1

>  <CAS>  (56) 
132327-80-1

>  <User>  (56) 
sevan.h

>  <StereoComment>  (56) 
as drawn

>  <Name>  (56) 
Fmoc-Gln(Trt)-OH

>  <Code>  (56) 
Gln

>  <AliasLowerCase>  (56) 
gln

>  <LatestVersion>  (56) 
0.0

>  <createdAt>  (56) 
2026-01-14T12:17:33.411Z

>  <updatedAt>  (56) 
2026-01-14T12:17:33.411Z

>  <NumRotatableBonds>  (56) 
5

>  <is_N_methyl>  (56) 
False

>  <is_a_methyl>  (56) 
False

>  <is_alpha_aa>  (56) 
True

>  <is_beta_aa>  (56) 
False

>  <is_S100_aa>  (56) 
False

>  <Murcko_SMILES>  (56) 


$$$$

     RDKit          2D

 10 10  0  0  0  0  0  0  0  0999 V2000
    3.5260    1.2990    0.0000 O   0  0  0  0  0  0  0  0  0  0  0  0
    2.7760    0.0000    0.0000 C   0  0  0  0  0  0  0  0  0  0  0  0
    1.2760    0.0000    0.0000 C   0  0  0  0  0  0  0  0  0  0  0  0
    0.3943    1.2135    0.0000 C   0  0  0  0  0  0  0  0  0  0  0  0
   -1.0323    0.7500    0.0000 C   0  0  0  0  0  0  0  0  0  0  0  0
   -2.2458    1.6317    0.0000 O   0  0  0  0  0  0  0  0  0  0  0  0
   -1.0323   -0.7500    0.0000 C   0  0  0  0  0  0  0  0  0  0  0  0
    0.3943   -1.2135    0.0000 N   0  0  0  0  0  0  0  0  0  0  0  0
    0.8578   -2.6401    0.0000 R   0  0  0  0  0  1  0  0  0  1  0  0
    3.5260   -1.2990    0.0000 R   0  0  0  0  0  1  0  0  0  2  0  0
  1  2  2  0
  3  2  1  6
  3  4  1  0
  4  5  1  0
  5  6  1  1
  5  7  1  0
  7  8  1  0
  8  9  1  0
  2 10  1  0
  8  3  1  0
M  END
>  <id>  (57) 
425f60b0-38e8-4989-b254-482048231ccb

>  <Version>  (57) 
0

>  <Alias>  (57) 
trans-D-Hyp

>  <Type>  (57) 
amino_acid

>  <Smiles>  (57) 
O=C([C@H]1C[C@H](O)CN1[*:1])[*:2]

>  <ProtectedSmiles>  (57) 
O=C(O)[C@H]1C[C@H](O)CN1C(=O)OCC1c2ccccc2-c2ccccc21

>  <CAS>  (57) 
139262-20-7

>  <User>  (57) 
mischa.s

>  <StereoComment>  (57) 
as drawn

>  <Name>  (57) 
(2R,4S)-Fmoc-4-hydroxypyrrolidine-2-carboxylic acid

>  <Code>  (57) 
trans-D-Hyp

>  <AliasLowerCase>  (57) 
trans-d-hyp

>  <LatestVersion>  (57) 
0.0

>  <createdAt>  (57) 
2026-01-14T11:38:29.600Z

>  <updatedAt>  (57) 
2026-01-14T11:38:29.600Z

>  <NumRotatableBonds>  (57) 
1

>  <is_N_methyl>  (57) 
False

>  <is_a_methyl>  (57) 
False

>  <is_alpha_aa>  (57) 
True

>  <is_beta_aa>  (57) 
False

>  <is_S100_aa>  (57) 
False

>  <Murcko_SMILES>  (57) 
C1CCNC1

$$$$

     RDKit          2D

 14 14  0  0  0  0  0  0  0  0999 V2000
    2.7760    0.0000    0.0000 C   0  0  0  0  0  0  0  0  0  0  0  0
    1.2760    0.0000    0.0000 C   0  0  0  0  0  0  0  0  0  0  0  0
    0.3943    1.2135    0.0000 N   0  0  0  0  0  0  0  0  0  0  0  0
   -1.0323    0.7500    0.0000 N   0  0  0  0  0  0  0  0  0  0  0  0
   -2.2458    1.6317    0.0000 C   0  0  0  0  0  0  0  0  0  0  0  0
   -1.0323   -0.7500    0.0000 C   0  0  0  0  0  0  0  0  0  0  0  0
    0.3943   -1.2135    0.0000 C   0  0  0  0  0  0  0  0  0  0  0  0
    0.8578   -2.6401    0.0000 C   0  0  0  0  0  0  0  0  0  0  0  0
   -0.1459   -3.7548    0.0000 C   0  0  0  0  0  0  0  0  0  0  0  0
   -1.6131   -3.4430    0.0000 N   0  0  0  0  0  0  0  0  0  0  0  0
   -2.6168   -4.5577    0.0000 R   0  0  0  0  0  1  0  0  0  1  0  0
    0.3177   -5.1814    0.0000 C   0  0  0  0  0  0  0  0  0  0  0  0
    1.7849   -5.4933    0.0000 O   0  0  0  0  0  0  0  0  0  0  0  0
   -0.6860   -6.2961    0.0000 R   0  0  0  0  0  1  0  0  0  2  0  0
  1  2  1  0
  2  3  2  0
  3  4  1  0
  4  5  1  0
  4  6  1  0
  6  7  2  0
  7  8  1  0
  8  9  1  0
  9 10  1  0
 10 11  1  0
  9 12  1  0
 12 13  2  0
 12 14  1  0
  7  2  1  0
M  END
>  <id>  (58) 
97cce10e-7f47-4397-ad5c-bd74683a1bb2

>  <Version>  (58) 
0

>  <Alias>  (58) 
rac1,3diMePyrazPrA

>  <Type>  (58) 
amino_acid

>  <Smiles>  (58) 
Cc1nn(C)cc1CC(N[*:1])C(=O)[*:2]

>  <ProtectedSmiles>  (58) 
Cc1nn(C)cc1CC(NC(=O)OCC1c2ccccc2-c2ccccc21)C(=O)O

>  <CAS>  (58) 
1379869-74-5

>  <User>  (58) 
angelica.l

>  <StereoComment>  (58) 
as drawn

>  <Name>  (58) 
3-(1,3-dimethyl-1H-pyrazol-4-yl)-2-({[(9H-fluoren-9-yl)methoxy]carbonyl}amino)propanoic acid

>  <Code>  (58) 
rac1,3diMePyrazPrA

>  <AliasLowerCase>  (58) 
rac1,3dimepyrazpra

>  <LatestVersion>  (58) 
0.0

>  <createdAt>  (58) 
2026-01-14T11:35:15.711Z

>  <updatedAt>  (58) 
2026-01-14T11:35:15.711Z

>  <NumRotatableBonds>  (58) 
4

>  <is_N_methyl>  (58) 
False

>  <is_a_methyl>  (58) 
False

>  <is_alpha_aa>  (58) 
True

>  <is_beta_aa>  (58) 
False

>  <is_S100_aa>  (58) 
False

>  <Murcko_SMILES>  (58) 
c1cn[nH]c1

$$$$

     RDKit          2D

 13 14  0  0  0  0  0  0  0  0999 V2000
   -1.2114    6.1554    0.0000 O   0  0  0  0  0  0  0  0  0  0  0  0
   -0.0967    5.1517    0.0000 C   0  0  0  0  0  0  0  0  0  0  0  0
   -0.4086    3.6844    0.0000 C   0  0  0  0  0  0  0  0  0  0  0  0
    0.7062    2.6807    0.0000 C   0  0  0  0  0  0  0  0  0  0  0  0
    0.3943    1.2135    0.0000 N   0  0  0  0  0  0  0  0  0  0  0  0
    1.2760    0.0000    0.0000 C   0  0  0  0  0  0  0  0  0  0  0  0
    0.3943   -1.2135    0.0000 N   0  0  0  0  0  0  0  0  0  0  0  0
   -1.0323   -0.7500    0.0000 N   0  0  0  0  0  0  0  0  0  0  0  0
   -1.0323    0.7500    0.0000 C   0  0  0  0  0  0  0  0  0  0  0  0
   -2.1470    1.7537    0.0000 C   0  0  0  0  0  0  0  0  0  0  0  0
   -1.8351    3.2209    0.0000 N   0  0  0  0  0  0  0  0  0  0  0  0
   -2.9499    4.2246    0.0000 R   0  0  0  0  0  1  0  0  0  1  0  0
    1.3299    5.6152    0.0000 R   0  0  0  0  0  1  0  0  0  2  0  0
  1  2  2  0
  2  3  1  0
  3  4  1  0
  4  5  1  0
  5  6  1  0
  6  7  2  0
  7  8  1  0
  8  9  2  0
  9 10  1  0
 10 11  1  0
 11 12  1  0
  2 13  1  0
 11  3  1  0
  9  5  1  0
M  END
>  <id>  (59) 
2da6c7ac-af00-47c6-81bd-fa5629305267

>  <Version>  (59) 
0

>  <Alias>  (59) 
TrzlPiprzn

>  <Type>  (59) 
amino_acid

>  <Smiles>  (59) 
O=C(C1Cn2cnnc2CN1[*:1])[*:2]

>  <ProtectedSmiles>  (59) 
O=C(O)C1Cn2cnnc2CN1C(=O)OCC1c2ccccc2-c2ccccc21

>  <CAS>  (59) 
2137457-64-6

>  <User>  (59) 
Sevan.habeshian@orbismedicines.com

>  <StereoComment>  (59) 
as drawn

>  <Name>  (59) 
N/A

>  <Code>  (59) 
TrzlPiprzn

>  <AliasLowerCase>  (59) 
trzlpiprzn

>  <LatestVersion>  (59) 
0.0

>  <createdAt>  (59) 
2026-02-13T09:56:35.391Z

>  <updatedAt>  (59) 
2026-02-13T09:56:35.391Z

>  <NumRotatableBonds>  (59) 
1

>  <is_N_methyl>  (59) 
False

>  <is_a_methyl>  (59) 
False

>  <is_alpha_aa>  (59) 
True

>  <is_beta_aa>  (59) 
False

>  <is_S100_aa>  (59) 
False

>  <Murcko_SMILES>  (59) 
c1nnc2n1CCNC2

$$$$

     RDKit          2D

 11 11  0  0  0  0  0  0  0  0999 V2000
    3.0000    0.0000    0.0000 C   0  0  0  0  0  0  0  0  0  0  0  0
    1.5000    0.0000    0.0000 C   0  0  0  0  0  0  0  0  0  0  0  0
    0.7500   -1.2990    0.0000 C   0  0  0  0  0  0  0  0  0  0  0  0
   -0.7500   -1.2990    0.0000 C   0  0  0  0  0  0  0  0  0  0  0  0
   -1.5000   -2.5981    0.0000 C   0  0  0  0  0  0  0  0  0  0  0  0
   -0.7500   -3.8971    0.0000 O   0  0  0  0  0  0  0  0  0  0  0  0
   -3.0000   -2.5981    0.0000 R   0  0  0  0  0  1  0  0  0  2  0  0
   -1.5000    0.0000    0.0000 C   0  0  0  0  0  0  0  0  0  0  0  0
   -0.7500    1.2990    0.0000 N   0  0  0  0  0  0  0  0  0  0  0  0
   -1.5000    2.5981    0.0000 R   0  0  0  0  0  1  0  0  0  1  0  0
    0.7500    1.2990    0.0000 C   0  0  0  0  0  0  0  0  0  0  0  0
  2  1  1  1
  2  3  1  0
  3  4  1  0
  4  5  1  1
  5  6  2  0
  5  7  1  0
  4  8  1  0
  8  9  1  0
  9 10  1  0
  9 11  1  0
 11  2  1  0
M  END
>  <id>  (60) 
9473272a-5d04-4abd-88c6-d45112f216f9

>  <Version>  (60) 
0

>  <Alias>  (60) 
(3R,5S)-3-Me-Nip

>  <Type>  (60) 
amino_acid

>  <Smiles>  (60) 
C[C@H]1C[C@@H](C(=O)[*:2])CN([*:1])C1

>  <ProtectedSmiles>  (60) 
C[C@H]1C[C@@H](C(=O)O)CN(C(=O)OCC2c3ccccc3-c3ccccc32)C1

>  <CAS>  (60) 
2227788-89-6

>  <User>  (60) 
marie.g

>  <StereoComment>  (60) 
as drawn

>  <Name>  (60) 
rac-(3R,5S)-1-{[(9H-fluoren-9-yl)methoxy]carbonyl}-5-methylpiperidine-3-carboxylic acid

>  <Code>  (60) 
(3R,5S)-3-Me-Nip

>  <AliasLowerCase>  (60) 
(3r,5s)-3-me-nip

>  <LatestVersion>  (60) 
0.0

>  <createdAt>  (60) 
2026-01-14T11:33:32.570Z

>  <updatedAt>  (60) 
2026-01-14T11:33:32.570Z

>  <NumRotatableBonds>  (60) 
1

>  <is_N_methyl>  (60) 
False

>  <is_a_methyl>  (60) 
False

>  <is_alpha_aa>  (60) 
False

>  <is_beta_aa>  (60) 
True

>  <is_S100_aa>  (60) 
False

>  <Murcko_SMILES>  (60) 
C1CCNCC1

$$$$

     RDKit          2D

 14 15  0  0  0  0  0  0  0  0999 V2000
    3.7500    1.2990    0.0000 O   0  0  0  0  0  0  0  0  0  0  0  0
    3.0000    0.0000    0.0000 C   0  0  0  0  0  0  0  0  0  0  0  0
    1.5000    0.0000    0.0000 C   0  0  0  0  0  0  0  0  0  0  0  0
    0.7500   -1.2990    0.0000 C   0  0  0  0  0  0  0  0  0  0  0  0
   -0.7500   -1.2990    0.0000 C   0  0  0  0  0  0  0  0  0  0  0  0
   -1.5000    0.0000    0.0000 C   0  0  0  0  0  0  0  0  0  0  0  0
   -0.7500    1.2990    0.0000 C   0  0  0  0  0  0  0  0  0  0  0  0
    0.7500    1.2990    0.0000 C   0  0  0  0  0  0  0  0  0  0  0  0
   -1.7537    2.4138    0.0000 C   0  0  0  0  0  0  0  0  0  0  0  0
   -3.1240    1.8037    0.0000 C   0  0  0  0  0  0  0  0  0  0  0  0
   -2.9672    0.3119    0.0000 C   0  0  0  0  0  0  0  0  0  0  0  0
   -4.0819   -0.6918    0.0000 N   0  0  0  0  0  0  0  0  0  0  0  0
   -5.5085   -0.2283    0.0000 R   0  0  0  0  0  1  0  0  0  1  0  0
    3.7500   -1.2990    0.0000 R   0  0  0  0  0  1  0  0  0  2  0  0
  1  2  2  0
  2  3  1  0
  3  4  2  0
  4  5  1  0
  5  6  2  0
  6  7  1  0
  7  8  2  0
  7  9  1  0
  9 10  1  0
 10 11  1  0
 11 12  1  0
 12 13  1  0
  2 14  1  0
  8  3  1  0
 11  6  1  0
M  END
>  <id>  (61) 
6a182575-d50b-4c91-bd89-3b81a670071f

>  <Version>  (61) 
0

>  <Alias>  (61) 
rac-5-acid-DHInd

>  <Type>  (61) 
amino_acid

>  <Smiles>  (61) 
O=C(c1ccc2c(c1)CCC2N[*:1])[*:2]

>  <ProtectedSmiles>  (61) 
O=C(NC1CCc2cc(C(=O)O)ccc21)OCC1c2ccccc2-c2ccccc21

>  <CAS>  (61) 
2490375-74-9

>  <User>  (61) 
marie.g

>  <StereoComment>  (61) 
as drawn

>  <Name>  (61) 
1-({[(9H-fluoren-9-yl)methoxy]carbonyl}amino)-2,3-dihydro-1H-indene-5-carboxylic acid

>  <Code>  (61) 
rac-5-acid-DHInd

>  <AliasLowerCase>  (61) 
rac-5-acid-dhind

>  <LatestVersion>  (61) 
0.0

>  <createdAt>  (61) 
2026-01-14T11:33:30.221Z

>  <updatedAt>  (61) 
2026-01-14T11:33:30.221Z

>  <NumRotatableBonds>  (61) 
2

>  <is_N_methyl>  (61) 
False

>  <is_a_methyl>  (61) 
False

>  <is_alpha_aa>  (61) 
False

>  <is_beta_aa>  (61) 
False

>  <is_S100_aa>  (61) 
False

>  <Murcko_SMILES>  (61) 
c1ccc2c(c1)CCC2

$$$$

     RDKit          2D

 13 14  0  0  0  0  0  0  0  0999 V2000
    1.2990   -5.8573    0.0000 O   0  0  0  0  0  0  0  0  0  0  0  0
   -0.0000   -5.1073    0.0000 C   0  0  0  0  0  0  0  0  0  0  0  0
   -0.0000   -3.6073    0.0000 C   0  0  0  0  0  0  0  0  0  0  0  0
    1.2135   -2.7256    0.0000 C   0  0  0  0  0  0  0  0  0  0  0  0
    0.7500   -1.2990    0.0000 C   0  0  0  0  0  0  0  0  0  0  0  0
    1.5000    0.0000    0.0000 C   0  0  0  0  0  0  0  0  0  0  0  0
    0.7500    1.2990    0.0000 C   0  0  0  0  0  0  0  0  0  0  0  0
   -0.7500    1.2990    0.0000 C   0  0  0  0  0  0  0  0  0  0  0  0
   -1.5000    0.0000    0.0000 C   0  0  0  0  0  0  0  0  0  0  0  0
   -0.7500   -1.2990    0.0000 C   0  0  0  0  0  0  0  0  0  0  0  0
   -1.2135   -2.7256    0.0000 N   0  0  0  0  0  0  0  0  0  0  0  0
   -2.6401   -3.1891    0.0000 R   0  0  0  0  0  1  0  0  0  1  0  0
   -1.2990   -5.8573    0.0000 R   0  0  0  0  0  1  0  0  0  2  0  0
  1  2  2  0
  3  2  1  1
  3  4  1  0
  5  4  1  1
  5  6  1  0
  6  7  1  0
  7  8  1  0
  8  9  1  0
 10  9  1  1
 10 11  1  0
 11 12  1  0
  2 13  1  0
 11  3  1  0
 10  5  1  0
M  END
>  <id>  (62) 
0b4b5155-5080-40f3-8676-35d434cfc2f0

>  <Version>  (62) 
0

>  <Alias>  (62) 
Oic

>  <Type>  (62) 
amino_acid

>  <Smiles>  (62) 
O=C([C@@H]1C[C@@H]2CCCC[C@@H]2N1[*:1])[*:2]

>  <ProtectedSmiles>  (62) 
O=C(O)[C@@H]1C[C@@H]2CCCC[C@@H]2N1C(=O)OCC1c2ccccc2-c2ccccc21

>  <CAS>  (62) 
130309-37-4

>  <User>  (62) 
sevan.h

>  <StereoComment>  (62) 
as drawn

>  <Name>  (62) 
Fmoc-(2S,3aS,7aS)-octahydro-1H-indole-2-carboxylic acid

>  <Code>  (62) 
Oic

>  <AliasLowerCase>  (62) 
oic

>  <LatestVersion>  (62) 
0.0

>  <createdAt>  (62) 
2026-01-14T12:15:37.029Z

>  <updatedAt>  (62) 
2026-01-14T12:15:37.029Z

>  <NumRotatableBonds>  (62) 
1

>  <is_N_methyl>  (62) 
False

>  <is_a_methyl>  (62) 
False

>  <is_alpha_aa>  (62) 
True

>  <is_beta_aa>  (62) 
False

>  <is_S100_aa>  (62) 
False

>  <Murcko_SMILES>  (62) 
C1CC[C@@H]2NCC[C@@H]2C1

$$$$

     RDKit          2D

 13 12  0  0  0  0  0  0  0  0999 V2000
    9.0933    0.7500    0.0000 C   0  0  0  0  0  0  0  0  0  0  0  0
    7.7942   -0.0000    0.0000 N   0  0  0  0  0  0  0  0  0  0  0  0
    7.7942   -1.5000    0.0000 C   0  0  0  0  0  0  0  0  0  0  0  0
    6.4952    0.7500    0.0000 C   0  0  0  0  0  0  0  0  0  0  0  0
    6.4952    2.2500    0.0000 O   0  0  0  0  0  0  0  0  0  0  0  0
    5.1962   -0.0000    0.0000 C   0  0  0  0  0  0  0  0  0  0  0  0
    3.8971    0.7500    0.0000 C   0  0  0  0  0  0  0  0  0  0  0  0
    2.5981   -0.0000    0.0000 C   0  0  0  0  0  0  0  0  0  0  0  0
    1.2990    0.7500    0.0000 N   0  0  0  0  0  0  0  0  0  0  0  0
    0.0000    0.0000    0.0000 R   0  0  0  0  0  1  0  0  0  1  0  0
    2.5981   -1.5000    0.0000 C   0  0  0  0  0  0  0  0  0  0  0  0
    1.2990   -2.2500    0.0000 O   0  0  0  0  0  0  0  0  0  0  0  0
    3.8971   -2.2500    0.0000 R   0  0  0  0  0  1  0  0  0  2  0  0
  1  2  1  0
  2  3  1  0
  2  4  1  0
  4  5  2  0
  4  6  1  0
  6  7  1  0
  8  7  1  1
  8  9  1  0
  9 10  1  0
  8 11  1  0
 11 12  2  0
 11 13  1  0
M  END
>  <id>  (63) 
cc6d0c7d-1b75-432a-8b34-73059fd38540

>  <Version>  (63) 
0

>  <Alias>  (63) 
Gln(NMe2)

>  <Type>  (63) 
amino_acid

>  <Smiles>  (63) 
CN(C)C(=O)CC[C@H](N[*:1])C(=O)[*:2]

>  <ProtectedSmiles>  (63) 
CN(C)C(=O)CC[C@H](NC(=O)OCC1c2ccccc2-c2ccccc21)C(=O)O

>  <CAS>  (63) 
1146118-59-3

>  <User>  (63) 
sevan.h

>  <StereoComment>  (63) 
as drawn

>  <Name>  (63) 
(2S)-4-(dimethylcarbamoyl)-2-({[(9H-fluoren-9-yl)methoxy]carbonyl}amino)butanoic acid

>  <Code>  (63) 
Gln(NMe2)

>  <AliasLowerCase>  (63) 
gln(nme2)

>  <LatestVersion>  (63) 
0.0

>  <createdAt>  (63) 
2026-01-14T11:38:18.972Z

>  <updatedAt>  (63) 
2026-01-14T11:38:18.972Z

>  <NumRotatableBonds>  (63) 
5

>  <is_N_methyl>  (63) 
False

>  <is_a_methyl>  (63) 
False

>  <is_alpha_aa>  (63) 
True

>  <is_beta_aa>  (63) 
False

>  <is_S100_aa>  (63) 
False

>  <Murcko_SMILES>  (63) 


$$$$

     RDKit          2D

 11 11  0  0  0  0  0  0  0  0999 V2000
    2.3886    2.4414    0.0000 O   0  0  0  0  0  0  0  0  0  0  0  0
    2.6491    0.9642    0.0000 C   0  0  0  0  0  0  0  0  0  0  0  0
    1.5000    0.0000    0.0000 C   0  0  0  0  0  0  0  0  0  0  0  0
    2.6491   -0.9642    0.0000 N   0  0  0  0  0  0  0  0  0  0  0  0
    2.3886   -2.4414    0.0000 R   0  0  0  0  0  1  0  0  0  1  0  0
    0.7500   -1.2990    0.0000 C   0  0  0  0  0  0  0  0  0  0  0  0
   -0.7500   -1.2990    0.0000 C   0  0  0  0  0  0  0  0  0  0  0  0
   -1.5000    0.0000    0.0000 C   0  0  0  0  0  0  0  0  0  0  0  0
   -0.7500    1.2990    0.0000 C   0  0  0  0  0  0  0  0  0  0  0  0
    0.7500    1.2990    0.0000 C   0  0  0  0  0  0  0  0  0  0  0  0
    4.0586    0.4512    0.0000 R   0  0  0  0  0  1  0  0  0  2  0  0
  1  2  2  0
  2  3  1  0
  3  4  1  0
  4  5  1  0
  3  6  1  0
  6  7  1  0
  7  8  1  0
  8  9  1  0
  9 10  1  0
  2 11  1  0
 10  3  1  0
M  END
>  <id>  (64) 
e938cf5c-6a56-4fc3-924f-46a36d80e6ad

>  <Version>  (64) 
0

>  <Alias>  (64) 
h-cLeu

>  <Type>  (64) 
amino_acid

>  <Smiles>  (64) 
O=C(C1(N[*:1])CCCCC1)[*:2]

>  <ProtectedSmiles>  (64) 
O=C(NC1(C(=O)O)CCCCC1)OCC1c2ccccc2-c2ccccc21

>  <CAS>  (64) 
162648-54-6

>  <User>  (64) 
clement.gensous@orbismedicines.com

>  <StereoComment>  (64) 
as drawn

>  <Name>  (64) 
h-cLeu

>  <Code>  (64) 
h-cLeu

>  <AliasLowerCase>  (64) 
h-cleu

>  <LatestVersion>  (64) 
0.0

>  <createdAt>  (64) 
2026-01-15T09:28:46.718Z

>  <updatedAt>  (64) 
2026-01-15T09:28:46.718Z

>  <NumRotatableBonds>  (64) 
2

>  <is_N_methyl>  (64) 
False

>  <is_a_methyl>  (64) 
False

>  <is_alpha_aa>  (64) 
True

>  <is_beta_aa>  (64) 
False

>  <is_S100_aa>  (64) 
False

>  <Murcko_SMILES>  (64) 
C1CCCCC1

$$$$

     RDKit          2D

 10  9  0  0  0  0  0  0  0  0999 V2000
    6.4952   -3.7500    0.0000 C   0  0  0  0  0  0  0  0  0  0  0  0
    6.4952   -2.2500    0.0000 C   0  0  0  0  0  0  0  0  0  0  0  0
    5.1962   -1.5000    0.0000 C   0  0  0  0  0  0  0  0  0  0  0  0
    5.1962   -0.0000    0.0000 N   0  0  0  0  0  0  0  0  0  0  0  0
    3.8971    0.7500    0.0000 C   0  0  0  0  0  0  0  0  0  0  0  0
    2.5981   -0.0000    0.0000 C   0  0  0  0  0  0  0  0  0  0  0  0
    1.2990    0.7500    0.0000 C   0  0  0  0  0  0  0  0  0  0  0  0
    1.2990    2.2500    0.0000 O   0  0  0  0  0  0  0  0  0  0  0  0
    0.0000    0.0000    0.0000 R   0  0  0  0  0  1  0  0  0  2  0  0
    6.4952    0.7500    0.0000 R   0  0  0  0  0  1  0  0  0  1  0  0
  1  2  1  0
  2  3  1  0
  3  4  1  0
  4  5  1  0
  5  6  1  0
  6  7  1  0
  7  8  2  0
  7  9  1  0
  4 10  1  0
M  END
>  <id>  (65) 
a2a2284d-961d-405f-ab41-65477fdec8c3

>  <Version>  (65) 
0

>  <Alias>  (65) 
N-Pr-BAla

>  <Type>  (65) 
amino_acid

>  <Smiles>  (65) 
CCCN(CCC(=O)[*:2])[*:1]

>  <ProtectedSmiles>  (65) 
CCCN(CCC(=O)O)C(=O)OCC1c2ccccc2-c2ccccc21

>  <CAS>  (65) 
2171909-89-8

>  <User>  (65) 
angelica.l

>  <StereoComment>  (65) 
as drawn

>  <Name>  (65) 
3-({[(9H-fluoren-9-yl)methoxy]carbonyl}(propyl)amino)propanoic acid

>  <Code>  (65) 
N-Pr-BAla

>  <AliasLowerCase>  (65) 
n-pr-bala

>  <LatestVersion>  (65) 
0.0

>  <createdAt>  (65) 
2026-01-14T11:34:43.408Z

>  <updatedAt>  (65) 
2026-01-14T11:34:43.408Z

>  <NumRotatableBonds>  (65) 
5

>  <is_N_methyl>  (65) 
False

>  <is_a_methyl>  (65) 
False

>  <is_alpha_aa>  (65) 
False

>  <is_beta_aa>  (65) 
True

>  <is_S100_aa>  (65) 
False

>  <Murcko_SMILES>  (65) 


$$$$

     RDKit          2D

 15 15  0  0  0  0  0  0  0  0999 V2000
    3.7500   -1.2990    0.0000 C   0  0  0  0  0  0  0  0  0  0  0  0
    3.0000    0.0000    0.0000 O   0  0  0  0  0  0  0  0  0  0  0  0
    1.5000    0.0000    0.0000 C   0  0  0  0  0  0  0  0  0  0  0  0
    0.7500   -1.2990    0.0000 C   0  0  0  0  0  0  0  0  0  0  0  0
   -0.7500   -1.2990    0.0000 C   0  0  0  0  0  0  0  0  0  0  0  0
   -1.5000    0.0000    0.0000 C   0  0  0  0  0  0  0  0  0  0  0  0
   -3.0000    0.0000    0.0000 C   0  0  0  0  0  0  0  0  0  0  0  0
   -3.7500    1.2990    0.0000 C   0  0  0  0  0  0  0  0  0  0  0  0
   -3.0000    2.5981    0.0000 N   0  0  0  0  0  0  0  0  0  0  0  0
   -3.7500    3.8971    0.0000 R   0  0  0  0  0  1  0  0  0  1  0  0
   -5.2500    1.2990    0.0000 C   0  0  0  0  0  0  0  0  0  0  0  0
   -6.0000   -0.0000    0.0000 O   0  0  0  0  0  0  0  0  0  0  0  0
   -6.0000    2.5981    0.0000 R   0  0  0  0  0  1  0  0  0  2  0  0
   -0.7500    1.2990    0.0000 C   0  0  0  0  0  0  0  0  0  0  0  0
    0.7500    1.2990    0.0000 C   0  0  0  0  0  0  0  0  0  0  0  0
  1  2  1  0
  2  3  1  0
  3  4  2  0
  4  5  1  0
  5  6  2  0
  6  7  1  0
  8  7  1  6
  8  9  1  0
  9 10  1  0
  8 11  1  0
 11 12  2  0
 11 13  1  0
  6 14  1  0
 14 15  2  0
 15  3  1  0
M  END
>  <id>  (66) 
054c874a-65ac-4290-8ada-5c1d69eb3ff4

>  <Version>  (66) 
0

>  <Alias>  (66) 
D-Tyr(OMe)

>  <Type>  (66) 
amino_acid

>  <Smiles>  (66) 
COc1ccc(C[C@@H](N[*:1])C(=O)[*:2])cc1

>  <ProtectedSmiles>  (66) 
COc1ccc(C[C@@H](NC(=O)OCC2c3ccccc3-c3ccccc32)C(=O)O)cc1

>  <CAS>  (66) 
201335-88-8

>  <User>  (66) 
angelica.l

>  <StereoComment>  (66) 
as drawn

>  <Name>  (66) 
Fmoc-D-Tyr(Me)-OH

>  <Code>  (66) 
D-Tyr(OMe)

>  <AliasLowerCase>  (66) 
d-tyr(ome)

>  <LatestVersion>  (66) 
0.0

>  <createdAt>  (66) 
2026-01-14T11:34:25.593Z

>  <updatedAt>  (66) 
2026-01-14T11:34:25.593Z

>  <NumRotatableBonds>  (66) 
5

>  <is_N_methyl>  (66) 
False

>  <is_a_methyl>  (66) 
False

>  <is_alpha_aa>  (66) 
True

>  <is_beta_aa>  (66) 
False

>  <is_S100_aa>  (66) 
False

>  <Murcko_SMILES>  (66) 
c1ccccc1

$$$$

     RDKit          2D

  8  7  0  0  0  0  0  0  0  0999 V2000
    5.1962   -0.0000    0.0000 C   0  0  0  0  0  0  0  0  0  0  0  0
    3.8971    0.7500    0.0000 C   0  0  0  0  0  0  0  0  0  0  0  0
    2.5981   -0.0000    0.0000 C   0  0  0  0  0  0  0  0  0  0  0  0
    1.2990    0.7500    0.0000 N   0  0  0  0  0  0  0  0  0  0  0  0
    0.0000    0.0000    0.0000 R   0  0  0  0  0  1  0  0  0  1  0  0
    3.8971    2.2500    0.0000 C   0  0  0  0  0  0  0  0  0  0  0  0
    2.5981    3.0000    0.0000 O   0  0  0  0  0  0  0  0  0  0  0  0
    5.1962    3.0000    0.0000 R   0  0  0  0  0  1  0  0  0  2  0  0
  2  1  1  6
  2  3  1  0
  3  4  1  0
  4  5  1  0
  2  6  1  0
  6  7  2  0
  6  8  1  0
M  END
>  <id>  (67) 
976f6ead-d0ee-45ef-958c-057c5554586e

>  <Version>  (67) 
0

>  <Alias>  (67) 
(3R)AiBA

>  <Type>  (67) 
amino_acid

>  <Smiles>  (67) 
C[C@H](CN[*:1])C(=O)[*:2]

>  <ProtectedSmiles>  (67) 
C[C@H](CNC(=O)OCC1c2ccccc2-c2ccccc21)C(=O)O

>  <CAS>  (67) 
211682-15-4

>  <User>  (67) 
mischa.s

>  <StereoComment>  (67) 
as drawn

>  <Name>  (67) 
Fmoc-(R)-3-aminoisobutyric acid

>  <Code>  (67) 
(3R)AiBA

>  <AliasLowerCase>  (67) 
(3r)aiba

>  <LatestVersion>  (67) 
0.0

>  <createdAt>  (67) 
2026-01-14T11:36:31.738Z

>  <updatedAt>  (67) 
2026-01-14T11:36:31.738Z

>  <NumRotatableBonds>  (67) 
3

>  <is_N_methyl>  (67) 
False

>  <is_a_methyl>  (67) 
False

>  <is_alpha_aa>  (67) 
False

>  <is_beta_aa>  (67) 
True

>  <is_S100_aa>  (67) 
False

>  <Murcko_SMILES>  (67) 


$$$$

     RDKit          2D

 12 12  0  0  0  0  0  0  0  0999 V2000
    3.0000   -2.5981    0.0000 O   0  0  0  0  0  0  0  0  0  0  0  0
    3.7500   -1.2990    0.0000 C   0  0  0  0  0  0  0  0  0  0  0  0
    3.0000    0.0000    0.0000 C   0  0  0  0  0  0  0  0  0  0  0  0
    1.5000    0.0000    0.0000 C   0  0  0  0  0  0  0  0  0  0  0  0
    0.7500   -1.2990    0.0000 C   0  0  0  0  0  0  0  0  0  0  0  0
   -0.7500   -1.2990    0.0000 C   0  0  0  0  0  0  0  0  0  0  0  0
   -1.5000    0.0000    0.0000 C   0  0  0  0  0  0  0  0  0  0  0  0
   -3.0000    0.0000    0.0000 N   0  0  0  0  0  0  0  0  0  0  0  0
   -3.7500    1.2990    0.0000 R   0  0  0  0  0  1  0  0  0  1  0  0
   -0.7500    1.2990    0.0000 C   0  0  0  0  0  0  0  0  0  0  0  0
    0.7500    1.2990    0.0000 C   0  0  0  0  0  0  0  0  0  0  0  0
    5.2500   -1.2990    0.0000 R   0  0  0  0  0  1  0  0  0  2  0  0
  1  2  2  0
  2  3  1  0
  3  4  1  0
  4  5  2  0
  5  6  1  0
  6  7  2  0
  7  8  1  0
  8  9  1  0
  7 10  1  0
 10 11  2  0
  2 12  1  0
 11  4  1  0
M  END
>  <id>  (68) 
31070edb-e8a7-4140-8a29-de35acfad759

>  <Version>  (68) 
0

>  <Alias>  (68) 
4APA

>  <Type>  (68) 
amino_acid

>  <Smiles>  (68) 
O=C(Cc1ccc(N[*:1])cc1)[*:2]

>  <ProtectedSmiles>  (68) 
O=C(O)Cc1ccc(NC(=O)OCC2c3ccccc3-c3ccccc32)cc1

>  <CAS>  (68) 
173690-53-4

>  <User>  (68) 
sevan.h

>  <StereoComment>  (68) 
as drawn

>  <Name>  (68) 
2-(Fmoc-4-aminophenyl)acetic acid

>  <Code>  (68) 
4APA

>  <AliasLowerCase>  (68) 
4apa

>  <LatestVersion>  (68) 
0.0

>  <createdAt>  (68) 
2026-01-14T12:15:59.698Z

>  <updatedAt>  (68) 
2026-01-14T12:15:59.698Z

>  <NumRotatableBonds>  (68) 
3

>  <is_N_methyl>  (68) 
False

>  <is_a_methyl>  (68) 
False

>  <is_alpha_aa>  (68) 
False

>  <is_beta_aa>  (68) 
False

>  <is_S100_aa>  (68) 
False

>  <Murcko_SMILES>  (68) 
c1ccccc1

$$$$

     RDKit          2D

 13 13  0  0  0  0  0  0  0  0999 V2000
    3.0000   -2.5981    0.0000 O   0  0  0  0  0  0  0  0  0  0  0  0
    3.7500   -1.2990    0.0000 C   0  0  0  0  0  0  0  0  0  0  0  0
    3.0000    0.0000    0.0000 C   0  0  0  0  0  0  0  0  0  0  0  0
    1.5000    0.0000    0.0000 C   0  0  0  0  0  0  0  0  0  0  0  0
    0.7500   -1.2990    0.0000 C   0  0  0  0  0  0  0  0  0  0  0  0
   -0.7500   -1.2990    0.0000 C   0  0  0  0  0  0  0  0  0  0  0  0
   -1.5000    0.0000    0.0000 C   0  0  0  0  0  0  0  0  0  0  0  0
   -0.7500    1.2990    0.0000 C   0  0  0  0  0  0  0  0  0  0  0  0
   -1.5000    2.5981    0.0000 C   0  0  0  0  0  0  0  0  0  0  0  0
   -0.7500    3.8971    0.0000 N   0  0  0  0  0  0  0  0  0  0  0  0
   -1.5000    5.1962    0.0000 R   0  0  0  0  0  1  0  0  0  1  0  0
    0.7500    1.2990    0.0000 C   0  0  0  0  0  0  0  0  0  0  0  0
    5.2500   -1.2990    0.0000 R   0  0  0  0  0  1  0  0  0  2  0  0
  1  2  2  0
  2  3  1  0
  3  4  1  0
  4  5  2  0
  5  6  1  0
  6  7  2  0
  7  8  1  0
  8  9  1  0
  9 10  1  0
 10 11  1  0
  8 12  2  0
  2 13  1  0
 12  4  1  0
M  END
>  <id>  (69) 
3c743da6-0002-4f0f-8321-afd592e781da

>  <Version>  (69) 
0

>  <Alias>  (69) 
3AMPAc

>  <Type>  (69) 
amino_acid

>  <Smiles>  (69) 
O=C(Cc1cccc(CN[*:1])c1)[*:2]

>  <ProtectedSmiles>  (69) 
O=C(O)Cc1cccc(CNC(=O)OCC2c3ccccc3-c3ccccc32)c1

>  <CAS>  (69) 
631915-50-9

>  <User>  (69) 
marie.g

>  <StereoComment>  (69) 
as drawn

>  <Name>  (69) 
Fmoc-3-aminomethyl-phenylacetic acid

>  <Code>  (69) 
3AMPAc

>  <AliasLowerCase>  (69) 
3ampac

>  <LatestVersion>  (69) 
0.0

>  <createdAt>  (69) 
2026-01-14T11:33:46.698Z

>  <updatedAt>  (69) 
2026-01-14T11:33:46.698Z

>  <NumRotatableBonds>  (69) 
4

>  <is_N_methyl>  (69) 
False

>  <is_a_methyl>  (69) 
False

>  <is_alpha_aa>  (69) 
False

>  <is_beta_aa>  (69) 
False

>  <is_S100_aa>  (69) 
False

>  <Murcko_SMILES>  (69) 
c1ccccc1

$$$$

     RDKit          2D

 10 10  0  0  0  0  0  0  0  0999 V2000
    3.3107   -1.2990    0.0000 C   0  0  0  0  0  0  0  0  0  0  0  0
    2.5607    0.0000    0.0000 C   0  0  0  0  0  0  0  0  0  0  0  0
    3.3107    1.2990    0.0000 C   0  0  0  0  0  0  0  0  0  0  0  0
    2.5607    2.5981    0.0000 O   0  0  0  0  0  0  0  0  0  0  0  0
    4.8107    1.2990    0.0000 R   0  0  0  0  0  1  0  0  0  2  0  0
    1.0607    0.0000    0.0000 C   0  0  0  0  0  0  0  0  0  0  0  0
   -0.0000   -1.0607    0.0000 C   0  0  0  0  0  0  0  0  0  0  0  0
   -1.0607    0.0000    0.0000 N   0  0  0  0  0  0  0  0  0  0  0  0
   -2.5607    0.0000    0.0000 R   0  0  0  0  0  1  0  0  0  1  0  0
    0.0000    1.0607    0.0000 C   0  0  0  0  0  0  0  0  0  0  0  0
  1  2  1  0
  2  3  1  0
  3  4  2  0
  3  5  1  0
  2  6  2  0
  6  7  1  0
  7  8  1  0
  8  9  1  0
  8 10  1  0
 10  6  1  0
M  END
>  <id>  (70) 
6329ccfe-b5a0-4018-93be-d5983152dbc8

>  <Version>  (70) 
0

>  <Alias>  (70) 
AzetidenePA

>  <Type>  (70) 
amino_acid

>  <Smiles>  (70) 
CC(C(=O)[*:2])=C1CN([*:1])C1

>  <ProtectedSmiles>  (70) 
CC(C(=O)O)=C1CN(C(=O)OCC2c3ccccc3-c3ccccc32)C1

>  <CAS>  (70) 
2138398-73-7

>  <User>  (70) 
Sevan.habeshian@orbismedicines.com

>  <StereoComment>  (70) 
as drawn

>  <Name>  (70) 
N/A

>  <Code>  (70) 
AzetidenePA

>  <AliasLowerCase>  (70) 
azetidenepa

>  <LatestVersion>  (70) 
0.0

>  <createdAt>  (70) 
2026-02-13T09:56:36.395Z

>  <updatedAt>  (70) 
2026-02-13T09:56:36.395Z

>  <NumRotatableBonds>  (70) 
1

>  <is_N_methyl>  (70) 
False

>  <is_a_methyl>  (70) 
False

>  <is_alpha_aa>  (70) 
False

>  <is_beta_aa>  (70) 
False

>  <is_S100_aa>  (70) 
False

>  <Murcko_SMILES>  (70) 
C=C1CNC1

$$$$

     RDKit          2D

 12 12  0  0  0  0  0  0  0  0999 V2000
    5.7760    0.0000    0.0000 O   0  0  0  0  0  0  0  0  0  0  0  0
    5.0260   -1.2990    0.0000 C   0  0  0  0  0  0  0  0  0  0  0  0
    3.5260   -1.2990    0.0000 C   0  0  0  0  0  0  0  0  0  0  0  0
    2.7760    0.0000    0.0000 C   0  0  0  0  0  0  0  0  0  0  0  0
    1.2760    0.0000    0.0000 C   0  0  0  0  0  0  0  0  0  0  0  0
    0.3943    1.2135    0.0000 C   0  0  0  0  0  0  0  0  0  0  0  0
   -1.0323    0.7500    0.0000 N   0  0  0  0  0  0  0  0  0  0  0  0
   -1.0323   -0.7500    0.0000 C   0  0  0  0  0  0  0  0  0  0  0  0
    0.3943   -1.2135    0.0000 S   0  0  0  0  0  0  0  0  0  0  0  0
    2.7760   -2.5981    0.0000 N   0  0  0  0  0  0  0  0  0  0  0  0
    3.5260   -3.8971    0.0000 R   0  0  0  0  0  1  0  0  0  1  0  0
    5.7760   -2.5981    0.0000 R   0  0  0  0  0  1  0  0  0  2  0  0
  1  2  2  0
  2  3  1  0
  3  4  1  1
  4  5  1  0
  5  6  2  0
  6  7  1  0
  7  8  2  0
  8  9  1  0
  3 10  1  0
 10 11  1  0
  2 12  1  0
  9  5  1  0
M  END
>  <id>  (71) 
41ade60f-8509-4143-8cce-93ba383a59d3

>  <Version>  (71) 
0

>  <Alias>  (71) 
Ala(5Thz)

>  <Type>  (71) 
amino_acid

>  <Smiles>  (71) 
O=C([C@H](Cc1cncs1)N[*:1])[*:2]

>  <ProtectedSmiles>  (71) 
O=C(N[C@@H](Cc1cncs1)C(=O)O)OCC1c2ccccc2-c2ccccc21

>  <CAS>  (71) 
870010-07-4

>  <User>  (71) 
ebr@orbismedicines.com

>  <StereoComment>  (71) 
as drawn

>  <Name>  (71) 
Fmoc-3-Ala(5-thiazoyl)-OH

>  <Code>  (71) 
Ala(5Thz)

>  <AliasLowerCase>  (71) 
ala(5thz)

>  <LatestVersion>  (71) 
0.0

>  <createdAt>  (71) 
2026-03-11T07:23:23.809Z

>  <updatedAt>  (71) 
2026-03-11T07:23:23.809Z

>  <NumRotatableBonds>  (71) 
4

>  <is_N_methyl>  (71) 
False

>  <is_a_methyl>  (71) 
False

>  <is_alpha_aa>  (71) 
True

>  <is_beta_aa>  (71) 
False

>  <is_S100_aa>  (71) 
False

>  <Murcko_SMILES>  (71) 
c1cscn1

$$$$

     RDKit          2D

 13 13  0  0  0  0  0  0  0  0999 V2000
    2.7760    0.0000    0.0000 C   0  0  0  0  0  0  0  0  0  0  0  0
    1.2760    0.0000    0.0000 N   0  0  0  0  0  0  0  0  0  0  0  0
    0.3943    1.2135    0.0000 C   0  0  0  0  0  0  0  0  0  0  0  0
   -1.0323    0.7500    0.0000 N   0  0  0  0  0  0  0  0  0  0  0  0
   -1.0323   -0.7500    0.0000 C   0  0  0  0  0  0  0  0  0  0  0  0
    0.3943   -1.2135    0.0000 C   0  0  0  0  0  0  0  0  0  0  0  0
    0.8578   -2.6401    0.0000 C   0  0  0  0  0  0  0  0  0  0  0  0
   -0.1459   -3.7548    0.0000 C   0  0  0  0  0  0  0  0  0  0  0  0
   -1.6131   -3.4430    0.0000 N   0  0  0  0  0  0  0  0  0  0  0  0
   -2.6168   -4.5577    0.0000 R   0  0  0  0  0  1  0  0  0  1  0  0
    0.3177   -5.1814    0.0000 C   0  0  0  0  0  0  0  0  0  0  0  0
    1.7849   -5.4933    0.0000 O   0  0  0  0  0  0  0  0  0  0  0  0
   -0.6860   -6.2961    0.0000 R   0  0  0  0  0  1  0  0  0  2  0  0
  1  2  1  0
  2  3  1  0
  3  4  2  0
  4  5  1  0
  5  6  2  0
  6  7  1  0
  8  7  1  1
  8  9  1  0
  9 10  1  0
  8 11  1  0
 11 12  2  0
 11 13  1  0
  6  2  1  0
M  END
>  <id>  (72) 
0ff13158-7f68-4c88-8af4-b4a82a06f771

>  <Version>  (72) 
0

>  <Alias>  (72) 
His(3-Me)

>  <Type>  (72) 
amino_acid

>  <Smiles>  (72) 
Cn1cncc1C[C@H](N[*:1])C(=O)[*:2]

>  <ProtectedSmiles>  (72) 
Cn1cncc1C[C@H](NC(=O)OCC1c2ccccc2-c2ccccc21)C(=O)O

>  <CAS>  (72) 
252049-16-4

>  <User>  (72) 
sevan.h

>  <StereoComment>  (72) 
as drawn

>  <Name>  (72) 
Fmoc-His(3-Me)-OH

>  <Code>  (72) 
His(3-Me)

>  <AliasLowerCase>  (72) 
his(3-me)

>  <LatestVersion>  (72) 
0.0

>  <createdAt>  (72) 
2026-01-14T11:38:12.370Z

>  <updatedAt>  (72) 
2026-01-14T11:38:12.370Z

>  <NumRotatableBonds>  (72) 
4

>  <is_N_methyl>  (72) 
False

>  <is_a_methyl>  (72) 
False

>  <is_alpha_aa>  (72) 
True

>  <is_beta_aa>  (72) 
False

>  <is_S100_aa>  (72) 
False

>  <Murcko_SMILES>  (72) 
c1c[nH]cn1

$$$$

     RDKit          2D

 13 13  0  0  0  0  0  0  0  0999 V2000
    6.0000    0.0000    0.0000 O   0  0  0  0  0  0  0  0  0  0  0  0
    5.2500   -1.2990    0.0000 C   0  0  0  0  0  0  0  0  0  0  0  0
    3.7500   -1.2990    0.0000 C   0  0  0  0  0  0  0  0  0  0  0  0
    3.0000    0.0000    0.0000 C   0  0  0  0  0  0  0  0  0  0  0  0
    3.7500    1.2990    0.0000 N   0  0  0  0  0  0  0  0  0  0  0  0
    5.2500    1.2990    0.0000 R   0  0  0  0  0  1  0  0  0  1  0  0
    1.5000    0.0000    0.0000 C   0  0  0  0  0  0  0  0  0  0  0  0
    0.7500   -1.2990    0.0000 C   0  0  0  0  0  0  0  0  0  0  0  0
   -0.7500   -1.2990    0.0000 C   0  0  0  0  0  0  0  0  0  0  0  0
   -1.5000    0.0000    0.0000 N   0  0  0  0  0  0  0  0  0  0  0  0
   -0.7500    1.2990    0.0000 C   0  0  0  0  0  0  0  0  0  0  0  0
    0.7500    1.2990    0.0000 C   0  0  0  0  0  0  0  0  0  0  0  0
    6.0000   -2.5981    0.0000 R   0  0  0  0  0  1  0  0  0  2  0  0
  1  2  2  0
  2  3  1  0
  3  4  1  0
  4  5  1  0
  5  6  1  0
  4  7  1  0
  7  8  2  0
  8  9  1  0
  9 10  2  0
 10 11  1  0
 11 12  2  0
  2 13  1  0
 12  7  1  0
M  END
>  <id>  (73) 
9e38bab6-64c3-411f-a656-d36e4413785d

>  <Version>  (73) 
0

>  <Alias>  (73) 
rac3-(4Pyr)PA

>  <Type>  (73) 
amino_acid

>  <Smiles>  (73) 
O=C(CC(N[*:1])c1ccncc1)[*:2]

>  <ProtectedSmiles>  (73) 
O=C(O)CC(NC(=O)OCC1c2ccccc2-c2ccccc21)c1ccncc1

>  <CAS>  (73) 
372144-23-5

>  <User>  (73) 
Sevan.habeshian@orbismedicines.com

>  <StereoComment>  (73) 
as drawn

>  <Name>  (73) 
N/A

>  <Code>  (73) 
rac3-(4Pyr)PA

>  <AliasLowerCase>  (73) 
rac3-(4pyr)pa

>  <LatestVersion>  (73) 
0.0

>  <createdAt>  (73) 
2026-02-13T09:56:36.324Z

>  <updatedAt>  (73) 
2026-02-13T09:56:36.324Z

>  <NumRotatableBonds>  (73) 
4

>  <is_N_methyl>  (73) 
False

>  <is_a_methyl>  (73) 
False

>  <is_alpha_aa>  (73) 
False

>  <is_beta_aa>  (73) 
True

>  <is_S100_aa>  (73) 
False

>  <Murcko_SMILES>  (73) 
c1ccncc1

$$$$

     RDKit          2D

 16 17  0  0  0  0  0  0  0  0999 V2000
    3.7500   -1.2990    0.0000 C   0  0  0  0  0  0  0  0  0  0  0  0
    3.0000    0.0000    0.0000 O   0  0  0  0  0  0  0  0  0  0  0  0
    1.5000    0.0000    0.0000 C   0  0  0  0  0  0  0  0  0  0  0  0
    0.7500   -1.2990    0.0000 C   0  0  0  0  0  0  0  0  0  0  0  0
   -0.7500   -1.2990    0.0000 C   0  0  0  0  0  0  0  0  0  0  0  0
   -1.5000    0.0000    0.0000 C   0  0  0  0  0  0  0  0  0  0  0  0
   -0.7500    1.2990    0.0000 C   0  0  0  0  0  0  0  0  0  0  0  0
    0.7500    1.2990    0.0000 C   0  0  0  0  0  0  0  0  0  0  0  0
   -1.5000    2.5981    0.0000 C   0  0  0  0  0  0  0  0  0  0  0  0
   -0.7500    3.8971    0.0000 C   0  0  0  0  0  0  0  0  0  0  0  0
    0.7500    3.8971    0.0000 O   0  0  0  0  0  0  0  0  0  0  0  0
   -1.5000    5.1962    0.0000 R   0  0  0  0  0  1  0  0  0  2  0  0
   -3.0000    2.5981    0.0000 C   0  0  0  0  0  0  0  0  0  0  0  0
   -3.7500    1.2990    0.0000 N   0  0  0  0  0  0  0  0  0  0  0  0
   -5.2500    1.2990    0.0000 R   0  0  0  0  0  1  0  0  0  1  0  0
   -3.0000    0.0000    0.0000 C   0  0  0  0  0  0  0  0  0  0  0  0
  1  2  1  0
  2  3  1  0
  3  4  2  0
  4  5  1  0
  5  6  2  0
  6  7  1  0
  7  8  2  0
  7  9  1  0
  9 10  1  0
 10 11  2  0
 10 12  1  0
  9 13  1  0
 13 14  1  0
 14 15  1  0
 14 16  1  0
  8  3  1  0
 16  6  1  0
M  END
>  <id>  (74) 
810b7191-336b-4e4f-b72f-972d0760359a

>  <Version>  (74) 
0

>  <Alias>  (74) 
4-CA-6-OMeTHIQ

>  <Type>  (74) 
amino_acid

>  <Smiles>  (74) 
COc1ccc2c(c1)C(C(=O)[*:2])CN([*:1])C2

>  <ProtectedSmiles>  (74) 
COc1ccc2c(c1)C(C(=O)O)CN(C(=O)OCC1c3ccccc3-c3ccccc31)C2

>  <CAS>  (74) 
1233025-96-1

>  <User>  (74) 
gontran.s

>  <StereoComment>  (74) 
as drawn

>  <Name>  (74) 
2-(((9H-Fluoren-9-yl)methoxy)carbonyl)-6-methoxy-1,2,3,4-tetrahydroisoquinoline-4-carboxylic acid

>  <Code>  (74) 
4-CA-6-OMeTHIQ

>  <AliasLowerCase>  (74) 
4-ca-6-omethiq

>  <LatestVersion>  (74) 
0.0

>  <createdAt>  (74) 
2026-01-14T11:38:40.139Z

>  <updatedAt>  (74) 
2026-01-14T11:38:40.139Z

>  <NumRotatableBonds>  (74) 
2

>  <is_N_methyl>  (74) 
False

>  <is_a_methyl>  (74) 
False

>  <is_alpha_aa>  (74) 
False

>  <is_beta_aa>  (74) 
True

>  <is_S100_aa>  (74) 
False

>  <Murcko_SMILES>  (74) 
c1ccc2c(c1)CCNC2

$$$$

     RDKit          2D

 13 13  0  0  0  0  0  0  0  0999 V2000
    6.0000    0.0000    0.0000 O   0  0  0  0  0  0  0  0  0  0  0  0
    5.2500   -1.2990    0.0000 C   0  0  0  0  0  0  0  0  0  0  0  0
    3.7500   -1.2990    0.0000 C   0  0  0  0  0  0  0  0  0  0  0  0
    3.0000    0.0000    0.0000 C   0  0  0  0  0  0  0  0  0  0  0  0
    3.7500    1.2990    0.0000 N   0  0  0  0  0  0  0  0  0  0  0  0
    5.2500    1.2990    0.0000 R   0  0  0  0  0  1  0  0  0  1  0  0
    1.5000    0.0000    0.0000 C   0  0  0  0  0  0  0  0  0  0  0  0
    0.7500   -1.2990    0.0000 C   0  0  0  0  0  0  0  0  0  0  0  0
   -0.7500   -1.2990    0.0000 C   0  0  0  0  0  0  0  0  0  0  0  0
   -1.5000    0.0000    0.0000 C   0  0  0  0  0  0  0  0  0  0  0  0
   -0.7500    1.2990    0.0000 C   0  0  0  0  0  0  0  0  0  0  0  0
    0.7500    1.2990    0.0000 C   0  0  0  0  0  0  0  0  0  0  0  0
    6.0000   -2.5981    0.0000 R   0  0  0  0  0  1  0  0  0  2  0  0
  1  2  2  0
  2  3  1  0
  4  3  1  6
  4  5  1  0
  5  6  1  0
  4  7  1  0
  7  8  1  0
  8  9  1  0
  9 10  1  0
 10 11  1  0
 11 12  1  0
  2 13  1  0
 12  7  1  0
M  END
>  <id>  (75) 
7e826899-dea5-4580-9620-d215ff669bb7

>  <Version>  (75) 
0

>  <Alias>  (75) 
D-BChg

>  <Type>  (75) 
amino_acid

>  <Smiles>  (75) 
O=C(C[C@@H](N[*:1])C1CCCCC1)[*:2]

>  <ProtectedSmiles>  (75) 
O=C(O)C[C@@H](NC(=O)OCC1c2ccccc2-c2ccccc21)C1CCCCC1

>  <CAS>  (75) 
1260616-10-1

>  <User>  (75) 
gontran.s

>  <StereoComment>  (75) 
as drawn

>  <Name>  (75) 
(R)-3-(Fmoc-amino)-3-cyclohexylpropanoic acid

>  <Code>  (75) 
D-BChg

>  <AliasLowerCase>  (75) 
d-bchg

>  <LatestVersion>  (75) 
0.0

>  <createdAt>  (75) 
2026-01-14T11:38:40.570Z

>  <updatedAt>  (75) 
2026-01-14T11:38:40.570Z

>  <NumRotatableBonds>  (75) 
4

>  <is_N_methyl>  (75) 
False

>  <is_a_methyl>  (75) 
False

>  <is_alpha_aa>  (75) 
False

>  <is_beta_aa>  (75) 
True

>  <is_S100_aa>  (75) 
False

>  <Murcko_SMILES>  (75) 
C1CCCCC1

$$$$

     RDKit          2D

 11 12  0  0  0  0  0  0  0  0999 V2000
    2.6480    1.3175    0.0000 O   0  0  0  0  0  0  0  0  0  0  0  0
    1.6443    2.4322    0.0000 C   0  0  0  0  0  0  0  0  0  0  0  0
    0.1771    2.1203    0.0000 C   0  0  0  0  0  0  0  0  0  0  0  0
   -0.9376    3.1240    0.0000 C   0  0  0  0  0  0  0  0  0  0  0  0
   -2.2367    2.3740    0.0000 N   0  0  0  0  0  0  0  0  0  0  0  0
   -3.6070    2.9841    0.0000 R   0  0  0  0  0  1  0  0  0  1  0  0
   -1.9248    0.9068    0.0000 C   0  0  0  0  0  0  0  0  0  0  0  0
   -0.4330    0.7500    0.0000 C   0  0  0  0  0  0  0  0  0  0  0  0
    0.8660    0.0000    0.0000 C   0  0  0  0  0  0  0  0  0  0  0  0
   -0.4330   -0.7500    0.0000 C   0  0  0  0  0  0  0  0  0  0  0  0
    2.1078    3.8588    0.0000 R   0  0  0  0  0  1  0  0  0  2  0  0
  1  2  2  0
  2  3  1  0
  3  4  1  0
  4  5  1  0
  5  6  1  0
  5  7  1  0
  7  8  1  0
  8  9  1  0
  9 10  1  0
  2 11  1  0
  8  3  1  0
 10  8  1  0
M  END
>  <id>  (76) 
26c7c9c6-857f-4bcc-95a1-033aee3d899b

>  <Version>  (76) 
0

>  <Alias>  (76) 
5Cp-1Pyr

>  <Type>  (76) 
amino_acid

>  <Smiles>  (76) 
O=C(C1CN([*:1])CC12CC2)[*:2]

>  <ProtectedSmiles>  (76) 
O=C(O)C1CN(C(=O)OCC2c3ccccc3-c3ccccc32)CC12CC2

>  <CAS>  (76) 
2138525-93-4

>  <User>  (76) 
Sevan.habeshian@orbismedicines.com

>  <StereoComment>  (76) 
as drawn

>  <Name>  (76) 
N/A

>  <Code>  (76) 
5Cp-1Pyr

>  <AliasLowerCase>  (76) 
5cp-1pyr

>  <LatestVersion>  (76) 
0.0

>  <createdAt>  (76) 
2026-02-13T09:56:36.293Z

>  <updatedAt>  (76) 
2026-02-13T09:56:36.293Z

>  <NumRotatableBonds>  (76) 
1

>  <is_N_methyl>  (76) 
False

>  <is_a_methyl>  (76) 
False

>  <is_alpha_aa>  (76) 
False

>  <is_beta_aa>  (76) 
True

>  <is_S100_aa>  (76) 
False

>  <Murcko_SMILES>  (76) 
C1CC2(CC2)CN1

$$$$

     RDKit          2D

 15 15  0  0  0  0  0  0  0  0999 V2000
    6.0000    0.0000    0.0000 O   0  0  0  0  0  0  0  0  0  0  0  0
    5.2500   -1.2990    0.0000 C   0  0  0  0  0  0  0  0  0  0  0  0
    3.7500   -1.2990    0.0000 C   0  0  0  0  0  0  0  0  0  0  0  0
    3.0000    0.0000    0.0000 C   0  0  0  0  0  0  0  0  0  0  0  0
    3.7500    1.2990    0.0000 C   0  0  0  0  0  0  0  0  0  0  0  0
    5.2500    1.2990    0.0000 N   0  0  0  0  0  0  0  0  0  0  0  0
    6.0000    2.5981    0.0000 R   0  0  0  0  0  1  0  0  0  1  0  0
    1.5000    0.0000    0.0000 C   0  0  0  0  0  0  0  0  0  0  0  0
    0.7500   -1.2990    0.0000 C   0  0  0  0  0  0  0  0  0  0  0  0
   -0.7500   -1.2990    0.0000 C   0  0  0  0  0  0  0  0  0  0  0  0
   -1.5000    0.0000    0.0000 C   0  0  0  0  0  0  0  0  0  0  0  0
   -3.0000    0.0000    0.0000 Cl  0  0  0  0  0  0  0  0  0  0  0  0
   -0.7500    1.2990    0.0000 C   0  0  0  0  0  0  0  0  0  0  0  0
    0.7500    1.2990    0.0000 C   0  0  0  0  0  0  0  0  0  0  0  0
    6.0000   -2.5981    0.0000 R   0  0  0  0  0  1  0  0  0  2  0  0
  1  2  2  0
  2  3  1  0
  4  3  1  6
  4  5  1  0
  5  6  1  0
  6  7  1  0
  4  8  1  0
  8  9  2  0
  9 10  1  0
 10 11  2  0
 11 12  1  0
 11 13  1  0
 13 14  2  0
  2 15  1  0
 14  8  1  0
M  END
>  <id>  (77) 
b8ee2f11-0a9b-4299-839e-4c00e669b906

>  <Version>  (77) 
0

>  <Alias>  (77) 
rac-4ClPhe-3-GABA

>  <Type>  (77) 
amino_acid

>  <Smiles>  (77) 
O=C(C[C@@H](CN[*:1])c1ccc(Cl)cc1)[*:2]

>  <ProtectedSmiles>  (77) 
O=C(O)C[C@@H](CNC(=O)OCC1c2ccccc2-c2ccccc21)c1ccc(Cl)cc1

>  <CAS>  (77) 
186320-20-7

>  <User>  (77) 
Sevan.habeshian@orbismedicines.com

>  <StereoComment>  (77) 
as drawn

>  <Name>  (77) 
N/A

>  <Code>  (77) 
rac-4ClPhe-3-GABA

>  <AliasLowerCase>  (77) 
rac-4clphe-3-gaba

>  <LatestVersion>  (77) 
0.0

>  <createdAt>  (77) 
2026-02-13T09:56:35.520Z

>  <updatedAt>  (77) 
2026-02-13T09:56:35.520Z

>  <NumRotatableBonds>  (77) 
5

>  <is_N_methyl>  (77) 
False

>  <is_a_methyl>  (77) 
False

>  <is_alpha_aa>  (77) 
False

>  <is_beta_aa>  (77) 
False

>  <is_S100_aa>  (77) 
False

>  <Murcko_SMILES>  (77) 
c1ccccc1

$$$$

     RDKit          2D

 14 14  0  0  0  0  0  0  0  0999 V2000
    3.0000    0.0000    0.0000 C   0  0  0  0  0  0  0  0  0  0  0  0
    1.5000    0.0000    0.0000 C   0  0  0  0  0  0  0  0  0  0  0  0
    0.7500   -1.2990    0.0000 C   0  0  0  0  0  0  0  0  0  0  0  0
   -0.7500   -1.2990    0.0000 C   0  0  0  0  0  0  0  0  0  0  0  0
   -1.5000    0.0000    0.0000 C   0  0  0  0  0  0  0  0  0  0  0  0
   -3.0000    0.0000    0.0000 C   0  0  0  0  0  0  0  0  0  0  0  0
   -3.7500    1.2990    0.0000 C   0  0  0  0  0  0  0  0  0  0  0  0
   -5.2500    1.2990    0.0000 C   0  0  0  0  0  0  0  0  0  0  0  0
   -6.0000   -0.0000    0.0000 O   0  0  0  0  0  0  0  0  0  0  0  0
   -6.0000    2.5981    0.0000 R   0  0  0  0  0  1  0  0  0  2  0  0
   -3.7500   -1.2990    0.0000 N   0  0  0  0  0  0  0  0  0  0  0  0
   -5.2500   -1.2990    0.0000 R   0  0  0  0  0  1  0  0  0  1  0  0
   -0.7500    1.2990    0.0000 C   0  0  0  0  0  0  0  0  0  0  0  0
    0.7500    1.2990    0.0000 C   0  0  0  0  0  0  0  0  0  0  0  0
  1  2  1  0
  2  3  2  0
  3  4  1  0
  4  5  2  0
  5  6  1  0
  6  7  1  1
  7  8  1  0
  8  9  2  0
  8 10  1  0
  6 11  1  0
 11 12  1  0
  5 13  1  0
 13 14  2  0
 14  2  1  0
M  END
>  <id>  (78) 
5ef04a3b-114e-4465-96a0-47648dc42dfe

>  <Version>  (78) 
0

>  <Alias>  (78) 
(3S)-(4MePhe)PA

>  <Type>  (78) 
amino_acid

>  <Smiles>  (78) 
Cc1ccc([C@H](CC(=O)[*:2])N[*:1])cc1

>  <ProtectedSmiles>  (78) 
Cc1ccc([C@H](CC(=O)O)NC(=O)OCC2c3ccccc3-c3ccccc32)cc1

>  <CAS>  (78) 
479064-99-8

>  <User>  (78) 
angelica.l

>  <StereoComment>  (78) 
as drawn

>  <Name>  (78) 
(3S)-3-({[(9H-fluoren-9-yl)methoxy]carbonyl}amino)-3-(4-methylphenyl)propanoic acid

>  <Code>  (78) 
(3S)-(4MePhe)PA

>  <AliasLowerCase>  (78) 
(3s)-(4mephe)pa

>  <LatestVersion>  (78) 
0.0

>  <createdAt>  (78) 
2026-01-14T11:35:20.806Z

>  <updatedAt>  (78) 
2026-01-14T11:35:20.806Z

>  <NumRotatableBonds>  (78) 
4

>  <is_N_methyl>  (78) 
False

>  <is_a_methyl>  (78) 
False

>  <is_alpha_aa>  (78) 
False

>  <is_beta_aa>  (78) 
True

>  <is_S100_aa>  (78) 
False

>  <Murcko_SMILES>  (78) 
c1ccccc1

$$$$

     RDKit          2D

 11 10  0  0  0  0  0  0  0  0999 V2000
    7.7942   -0.0000    0.0000 C   0  0  0  0  0  0  0  0  0  0  0  0
    6.4952    0.7500    0.0000 N   0  0  0  0  0  0  0  0  0  0  0  0
    5.1962   -0.0000    0.0000 C   0  0  0  0  0  0  0  0  0  0  0  0
    5.1962   -1.5000    0.0000 O   0  0  0  0  0  0  0  0  0  0  0  0
    3.8971    0.7500    0.0000 C   0  0  0  0  0  0  0  0  0  0  0  0
    2.5981   -0.0000    0.0000 C   0  0  0  0  0  0  0  0  0  0  0  0
    1.2990    0.7500    0.0000 N   0  0  0  0  0  0  0  0  0  0  0  0
    0.0000    0.0000    0.0000 R   0  0  0  0  0  1  0  0  0  1  0  0
    2.5981   -1.5000    0.0000 C   0  0  0  0  0  0  0  0  0  0  0  0
    1.2990   -2.2500    0.0000 O   0  0  0  0  0  0  0  0  0  0  0  0
    3.8971   -2.2500    0.0000 R   0  0  0  0  0  1  0  0  0  2  0  0
  1  2  1  0
  2  3  1  0
  3  4  2  0
  3  5  1  0
  6  5  1  1
  6  7  1  0
  7  8  1  0
  6  9  1  0
  9 10  2  0
  9 11  1  0
M  END
>  <id>  (79) 
db43b444-9eb9-40f9-b7b9-44c1a24140a4

>  <Version>  (79) 
0

>  <Alias>  (79) 
Asn(NHMe)

>  <Type>  (79) 
amino_acid

>  <Smiles>  (79) 
CNC(=O)C[C@H](N[*:1])C(=O)[*:2]

>  <ProtectedSmiles>  (79) 
CNC(=O)C[C@H](NC(=O)OCC1c2ccccc2-c2ccccc21)C(=O)O

>  <CAS>  (79) 
149204-93-3

>  <User>  (79) 
sevan.h

>  <StereoComment>  (79) 
as drawn

>  <Name>  (79) 
N-Fmoc-N'-methyl-L-asparagine

>  <Code>  (79) 
Asn(NHMe)

>  <AliasLowerCase>  (79) 
asn(nhme)

>  <LatestVersion>  (79) 
0.0

>  <createdAt>  (79) 
2026-01-14T11:38:11.879Z

>  <updatedAt>  (79) 
2026-01-14T11:38:11.879Z

>  <NumRotatableBonds>  (79) 
4

>  <is_N_methyl>  (79) 
False

>  <is_a_methyl>  (79) 
False

>  <is_alpha_aa>  (79) 
True

>  <is_beta_aa>  (79) 
False

>  <is_S100_aa>  (79) 
False

>  <Murcko_SMILES>  (79) 


$$$$

     RDKit          2D

 10 10  0  0  0  0  0  0  0  0999 V2000
    3.7500    1.2990    0.0000 O   0  0  0  0  0  0  0  0  0  0  0  0
    3.0000    0.0000    0.0000 C   0  0  0  0  0  0  0  0  0  0  0  0
    1.5000    0.0000    0.0000 C   0  0  0  0  0  0  0  0  0  0  0  0
    0.7500   -1.2990    0.0000 C   0  0  0  0  0  0  0  0  0  0  0  0
   -0.7500   -1.2990    0.0000 N   0  0  0  0  0  0  0  0  0  0  0  0
   -1.5000   -2.5981    0.0000 R   0  0  0  0  0  1  0  0  0  1  0  0
   -1.5000    0.0000    0.0000 C   0  0  0  0  0  0  0  0  0  0  0  0
   -0.7500    1.2990    0.0000 C   0  0  0  0  0  0  0  0  0  0  0  0
    0.7500    1.2990    0.0000 O   0  0  0  0  0  0  0  0  0  0  0  0
    3.7500   -1.2990    0.0000 R   0  0  0  0  0  1  0  0  0  2  0  0
  1  2  2  0
  3  2  1  6
  3  4  1  0
  4  5  1  0
  5  6  1  0
  5  7  1  0
  7  8  1  0
  8  9  1  0
  2 10  1  0
  9  3  1  0
M  END
>  <id>  (80) 
ddb9ec8c-679b-462e-a2a9-2a8ad67b0f8c

>  <Version>  (80) 
0

>  <Alias>  (80) 
2S-Morph

>  <Type>  (80) 
amino_acid

>  <Smiles>  (80) 
O=C([C@@H]1CN([*:1])CCO1)[*:2]

>  <ProtectedSmiles>  (80) 
O=C(O)[C@@H]1CN(C(=O)OCC2c3ccccc3-c3ccccc32)CCO1

>  <CAS>  (80) 
1629738-61-9

>  <User>  (80) 
emile.b

>  <StereoComment>  (80) 
as drawn

>  <Name>  (80) 
(S)-Fmoc-2-carboxymorpholine

>  <Code>  (80) 
2S-Morph

>  <AliasLowerCase>  (80) 
2s-morph

>  <LatestVersion>  (80) 
0.0

>  <createdAt>  (80) 
2026-01-14T11:34:37.651Z

>  <updatedAt>  (80) 
2026-01-14T11:34:37.651Z

>  <NumRotatableBonds>  (80) 
1

>  <is_N_methyl>  (80) 
False

>  <is_a_methyl>  (80) 
False

>  <is_alpha_aa>  (80) 
False

>  <is_beta_aa>  (80) 
True

>  <is_S100_aa>  (80) 
False

>  <Murcko_SMILES>  (80) 
C1COCCN1

$$$$

     RDKit          2D

 11 12  0  0  0  0  0  0  0  0999 V2000
   -4.8205    2.1024    0.0000 O   0  0  0  0  0  0  0  0  0  0  0  0
   -3.6070    2.9841    0.0000 C   0  0  0  0  0  0  0  0  0  0  0  0
   -2.2367    2.3740    0.0000 C   0  0  0  0  0  0  0  0  0  0  0  0
   -1.9248    0.9068    0.0000 C   0  0  0  0  0  0  0  0  0  0  0  0
   -0.4330    0.7500    0.0000 C   0  0  0  0  0  0  0  0  0  0  0  0
    0.8660    0.0000    0.0000 C   0  0  0  0  0  0  0  0  0  0  0  0
   -0.4330   -0.7500    0.0000 C   0  0  0  0  0  0  0  0  0  0  0  0
    0.1771    2.1203    0.0000 C   0  0  0  0  0  0  0  0  0  0  0  0
   -0.9376    3.1240    0.0000 N   0  0  0  0  0  0  0  0  0  0  0  0
   -0.7808    4.6158    0.0000 R   0  0  0  0  0  1  0  0  0  1  0  0
   -3.7638    4.4759    0.0000 R   0  0  0  0  0  1  0  0  0  2  0  0
  1  2  2  0
  3  2  1  1
  3  4  1  0
  4  5  1  0
  5  6  1  0
  6  7  1  0
  5  8  1  0
  8  9  1  0
  9 10  1  0
  2 11  1  0
  9  3  1  0
  7  5  1  0
M  END
>  <id>  (81) 
69600f9f-b7de-42c8-8108-15f2d364c530

>  <Version>  (81) 
0

>  <Alias>  (81) 
Pro(4Cp)

>  <Type>  (81) 
amino_acid

>  <Smiles>  (81) 
O=C([C@@H]1CC2(CC2)CN1[*:1])[*:2]

>  <ProtectedSmiles>  (81) 
O=C(O)[C@@H]1CC2(CC2)CN1C(=O)OCC1c2ccccc2-c2ccccc21

>  <CAS>  (81) 
2170726-27-7

>  <User>  (81) 
mischa.s

>  <StereoComment>  (81) 
as drawn

>  <Name>  (81) 
(6S)-5-Fmoc-5-azaspiro[2.4]heptane-6-carboxylic acid

>  <Code>  (81) 
Pro(4Cp)

>  <AliasLowerCase>  (81) 
pro(4cp)

>  <LatestVersion>  (81) 
0.0

>  <createdAt>  (81) 
2026-01-14T11:36:32.206Z

>  <updatedAt>  (81) 
2026-01-14T11:36:32.206Z

>  <NumRotatableBonds>  (81) 
1

>  <is_N_methyl>  (81) 
False

>  <is_a_methyl>  (81) 
False

>  <is_alpha_aa>  (81) 
True

>  <is_beta_aa>  (81) 
False

>  <is_S100_aa>  (81) 
False

>  <Murcko_SMILES>  (81) 
C1CC2(CC2)CN1

$$$$

     RDKit          2D

 17 18  0  0  0  0  0  0  0  0999 V2000
    3.0000    0.0000    0.0000 C   0  0  0  0  0  0  0  0  0  0  0  0
    1.5000    0.0000    0.0000 C   0  0  0  0  0  0  0  0  0  0  0  0
    0.7500   -1.2990    0.0000 C   0  0  0  0  0  0  0  0  0  0  0  0
   -0.7500   -1.2990    0.0000 C   0  0  0  0  0  0  0  0  0  0  0  0
   -1.5000    0.0000    0.0000 C   0  0  0  0  0  0  0  0  0  0  0  0
   -0.7500    1.2990    0.0000 C   0  0  0  0  0  0  0  0  0  0  0  0
   -1.2135    2.7256    0.0000 C   0  0  0  0  0  0  0  0  0  0  0  0
   -2.6401    3.1891    0.0000 C   0  0  0  0  0  0  0  0  0  0  0  0
   -2.9520    4.6564    0.0000 C   0  0  0  0  0  0  0  0  0  0  0  0
   -1.8373    5.6601    0.0000 N   0  0  0  0  0  0  0  0  0  0  0  0
   -2.1491    7.1273    0.0000 R   0  0  0  0  0  1  0  0  0  1  0  0
   -4.3786    5.1199    0.0000 C   0  0  0  0  0  0  0  0  0  0  0  0
   -5.4933    4.1162    0.0000 O   0  0  0  0  0  0  0  0  0  0  0  0
   -4.6904    6.5871    0.0000 R   0  0  0  0  0  1  0  0  0  2  0  0
   -0.0000    3.6073    0.0000 C   0  0  0  0  0  0  0  0  0  0  0  0
    1.2135    2.7256    0.0000 N   0  0  0  0  0  0  0  0  0  0  0  0
    0.7500    1.2990    0.0000 C   0  0  0  0  0  0  0  0  0  0  0  0
  1  2  1  0
  2  3  2  0
  3  4  1  0
  4  5  2  0
  5  6  1  0
  6  7  1  0
  7  8  1  0
  9  8  1  1
  9 10  1  0
 10 11  1  0
  9 12  1  0
 12 13  2  0
 12 14  1  0
  7 15  2  0
 15 16  1  0
 16 17  1  0
 17  2  1  0
 17  6  2  0
M  END
>  <id>  (82) 
a961c997-31f9-467a-850e-5b246fb379f3

>  <Version>  (82) 
0

>  <Alias>  (82) 
Trp(7-Me)

>  <Type>  (82) 
amino_acid

>  <Smiles>  (82) 
Cc1cccc2c(C[C@H](N[*:1])C(=O)[*:2])c[nH]c12

>  <ProtectedSmiles>  (82) 
Cc1cccc2c(C[C@H](NC(=O)OCC3c4ccccc4-c4ccccc43)C(=O)O)c[nH]c12

>  <CAS>  (82) 
1808268-53-2

>  <User>  (82) 
mischa.s

>  <StereoComment>  (82) 
as drawn

>  <Name>  (82) 
(S)-2-((((9H-Fluoren-9-yl)methoxy)carbonyl)amino)-3-(7-methyl-1H-indol-3-yl)propanoic acid

>  <Code>  (82) 
Trp(7-Me)

>  <AliasLowerCase>  (82) 
trp(7-me)

>  <LatestVersion>  (82) 
0.0

>  <createdAt>  (82) 
2026-01-14T11:36:19.587Z

>  <updatedAt>  (82) 
2026-01-14T11:36:19.587Z

>  <NumRotatableBonds>  (82) 
4

>  <is_N_methyl>  (82) 
False

>  <is_a_methyl>  (82) 
False

>  <is_alpha_aa>  (82) 
True

>  <is_beta_aa>  (82) 
False

>  <is_S100_aa>  (82) 
False

>  <Murcko_SMILES>  (82) 
c1ccc2[nH]ccc2c1

$$$$

     RDKit          2D

  0  0  0  0  0  0  0  0  0  0999 V3000
M  V30 BEGIN CTAB
M  V30 COUNTS 14 14 0 0 0
M  V30 BEGIN ATOM
M  V30 1 O 3.750000 1.299038 0.000000 0
M  V30 2 C 3.000000 0.000000 0.000000 0
M  V30 3 C 1.500000 0.000000 0.000000 0
M  V30 4 C 0.750000 -1.299038 0.000000 0
M  V30 5 C -0.750000 -1.299038 0.000000 0
M  V30 6 C -1.500000 -2.598076 0.000000 0
M  V30 7 F -2.250000 -3.897114 0.000000 0
M  V30 8 F -2.799038 -1.848076 0.000000 0
M  V30 9 F -0.200962 -3.348076 0.000000 0
M  V30 10 C -1.500000 0.000000 0.000000 0
M  V30 11 N -0.750000 1.299038 0.000000 0
M  V30 12 "NOT [H]" -1.500000 2.598076 0.000000 1
M  V30 13 C 0.750000 1.299038 0.000000 0
M  V30 14 "NOT [H]" 3.750000 -1.299038 0.000000 2
M  V30 END ATOM
M  V30 BEGIN BOND
M  V30 1 2 1 2
M  V30 2 1 3 2 CFG=1
M  V30 3 1 3 4
M  V30 4 1 4 5
M  V30 5 1 5 6 CFG=1
M  V30 6 1 6 7
M  V30 7 1 6 8
M  V30 8 1 6 9
M  V30 9 1 5 10
M  V30 10 1 10 11
M  V30 11 1 11 12
M  V30 12 1 11 13
M  V30 13 1 2 14
M  V30 14 1 13 3
M  V30 END BOND
M  V30 BEGIN COLLECTION
M  V30 MDLV30/STERAC1 ATOMS=(2 3 5)
M  V30 END COLLECTION
M  V30 END CTAB
M  END
>  <id>  (83) 
ffab90a2-cb6f-4818-9733-a44a85ecf1a6

>  <Version>  (83) 
0

>  <Alias>  (83) 
rel-(3R,5S)-CF3PipCA

>  <Type>  (83) 
amino_acid

>  <Smiles>  (83) 
O=C([C@H]1C[C@@H](C(F)(F)F)CN([*:1])C1)[*:2] |&1:2,4|

>  <ProtectedSmiles>  (83) 
O=C(O)[C@H]1C[C@@H](C(F)(F)F)CN(C(=O)OCC2c3ccccc3-c3ccccc32)C1 |&1:3,5|

>  <CAS>  (83) 
2138337-54-7

>  <User>  (83) 
emile.b

>  <StereoComment>  (83) 
rac-cis

>  <Name>  (83) 
rac-(3S,5R)-1-(9H-fluoren-9-ylmethoxycarbonyl)-5-(trifluoromethyl)piperidine-3-carboxylic acid

>  <Code>  (83) 
rel-(3R,5S)-CF3PipCA

>  <AliasLowerCase>  (83) 
rel-(3r,5s)-cf3pipca

>  <LatestVersion>  (83) 
0.0

>  <createdAt>  (83) 
2026-01-14T11:34:38.525Z

>  <updatedAt>  (83) 
2026-01-14T11:34:38.525Z

>  <NumRotatableBonds>  (83) 
1

>  <is_N_methyl>  (83) 
False

>  <is_a_methyl>  (83) 
False

>  <is_alpha_aa>  (83) 
False

>  <is_beta_aa>  (83) 
True

>  <is_S100_aa>  (83) 
False

>  <Murcko_SMILES>  (83) 
C1CCNCC1 C1CCNCC1

$$$$

     RDKit          2D

 13 14  0  0  0  0  0  0  0  0999 V2000
   -1.5364    5.3790    0.0000 O   0  0  0  0  0  0  0  0  0  0  0  0
   -0.0692    5.0672    0.0000 C   0  0  0  0  0  0  0  0  0  0  0  0
    0.3943    3.6406    0.0000 C   0  0  0  0  0  0  0  0  0  0  0  0
   -0.4874    2.4271    0.0000 C   0  0  0  0  0  0  0  0  0  0  0  0
    0.3943    1.2135    0.0000 C   0  0  0  0  0  0  0  0  0  0  0  0
    1.2760    0.0000    0.0000 C   0  0  0  0  0  0  0  0  0  0  0  0
    0.3943   -1.2135    0.0000 C   0  0  0  0  0  0  0  0  0  0  0  0
   -1.0323   -0.7500    0.0000 O   0  0  0  0  0  0  0  0  0  0  0  0
   -1.0323    0.7500    0.0000 C   0  0  0  0  0  0  0  0  0  0  0  0
    1.8209    1.6771    0.0000 C   0  0  0  0  0  0  0  0  0  0  0  0
    1.8209    3.1771    0.0000 N   0  0  0  0  0  0  0  0  0  0  0  0
    3.0344    4.0587    0.0000 R   0  0  0  0  0  1  0  0  0  1  0  0
    0.9345    6.1819    0.0000 R   0  0  0  0  0  1  0  0  0  2  0  0
  1  2  2  0
  2  3  1  0
  3  4  1  0
  4  5  1  0
  5  6  1  0
  6  7  1  0
  7  8  1  0
  8  9  1  0
  5 10  1  0
 10 11  1  0
 11 12  1  0
  2 13  1  0
 11  3  1  0
  9  5  1  0
M  END
>  <id>  (84) 
81dfe91e-2910-4729-bb1b-4e356062c9cc

>  <Version>  (84) 
0

>  <Alias>  (84) 
5oxa2azaSpiro

>  <Type>  (84) 
amino_acid

>  <Smiles>  (84) 
O=C(C1CC2(CCOC2)CN1[*:1])[*:2]

>  <ProtectedSmiles>  (84) 
O=C(O)C1CC2(CCOC2)CN1C(=O)OCC1c2ccccc2-c2ccccc21

>  <CAS>  (84) 
2219378-78-4

>  <User>  (84) 
alice.granger@orbismedicines.com

>  <StereoComment>  (84) 
as drawn

>  <Name>  (84) 
2-{[(9H-fluoren-9-yl)methoxy]carbonyl}-5-oxa-2-azaspiro[3.4]octane-7-carboxylic acid

>  <Code>  (84) 
5oxa2azaSpiro

>  <AliasLowerCase>  (84) 
5oxa2azaspiro

>  <LatestVersion>  (84) 
0.0

>  <createdAt>  (84) 
2026-03-11T10:37:04.547Z

>  <updatedAt>  (84) 
2026-03-11T10:37:04.547Z

>  <NumRotatableBonds>  (84) 
1

>  <is_N_methyl>  (84) 
False

>  <is_a_methyl>  (84) 
False

>  <is_alpha_aa>  (84) 
True

>  <is_beta_aa>  (84) 
False

>  <is_S100_aa>  (84) 
False

>  <Murcko_SMILES>  (84) 
C1CC2(CCOC2)CN1

$$$$

     RDKit          2D

  9  9  0  0  0  0  0  0  0  0999 V2000
    1.7331    2.5095    0.0000 O   0  0  0  0  0  0  0  0  0  0  0  0
    2.1213    1.0607    0.0000 C   0  0  0  0  0  0  0  0  0  0  0  0
    1.0607    0.0000    0.0000 C   0  0  0  0  0  0  0  0  0  0  0  0
    2.1213   -1.0607    0.0000 N   0  0  0  0  0  0  0  0  0  0  0  0
    1.7331   -2.5095    0.0000 R   0  0  0  0  0  1  0  0  0  1  0  0
   -0.0000   -1.0607    0.0000 C   0  0  0  0  0  0  0  0  0  0  0  0
   -1.0607    0.0000    0.0000 O   0  0  0  0  0  0  0  0  0  0  0  0
    0.0000    1.0607    0.0000 C   0  0  0  0  0  0  0  0  0  0  0  0
    3.5702    0.6724    0.0000 R   0  0  0  0  0  1  0  0  0  2  0  0
  1  2  2  0
  2  3  1  0
  3  4  1  0
  4  5  1  0
  3  6  1  0
  6  7  1  0
  7  8  1  0
  2  9  1  0
  8  3  1  0
M  END
>  <id>  (85) 
1e33682c-4796-441f-bb4d-ec9b25649d1a

>  <Version>  (85) 
0

>  <Alias>  (85) 
Oxet

>  <Type>  (85) 
amino_acid

>  <Smiles>  (85) 
O=C(C1(N[*:1])COC1)[*:2]

>  <ProtectedSmiles>  (85) 
O=C(NC1(C(=O)O)COC1)OCC1c2ccccc2-c2ccccc21

>  <CAS>  (85) 
1380327-56-9

>  <User>  (85) 
sevan.h

>  <StereoComment>  (85) 
as drawn

>  <Name>  (85) 
3-Fmoc-amino-3-carboxy-oxetane

>  <Code>  (85) 
Oxet

>  <AliasLowerCase>  (85) 
oxet

>  <LatestVersion>  (85) 
0.0

>  <createdAt>  (85) 
2026-01-14T12:15:19.379Z

>  <updatedAt>  (85) 
2026-01-14T12:15:19.379Z

>  <NumRotatableBonds>  (85) 
2

>  <is_N_methyl>  (85) 
False

>  <is_a_methyl>  (85) 
False

>  <is_alpha_aa>  (85) 
True

>  <is_beta_aa>  (85) 
False

>  <is_S100_aa>  (85) 
False

>  <Murcko_SMILES>  (85) 
C1COC1

$$$$

     RDKit          2D

 13 13  0  0  0  0  0  0  0  0999 V2000
    6.0000    0.0000    0.0000 O   0  0  0  0  0  0  0  0  0  0  0  0
    5.2500   -1.2990    0.0000 C   0  0  0  0  0  0  0  0  0  0  0  0
    3.7500   -1.2990    0.0000 C   0  0  0  0  0  0  0  0  0  0  0  0
    3.0000    0.0000    0.0000 C   0  0  0  0  0  0  0  0  0  0  0  0
    1.5000    0.0000    0.0000 C   0  0  0  0  0  0  0  0  0  0  0  0
    0.7500   -1.2990    0.0000 C   0  0  0  0  0  0  0  0  0  0  0  0
   -0.7500   -1.2990    0.0000 C   0  0  0  0  0  0  0  0  0  0  0  0
   -1.5000    0.0000    0.0000 C   0  0  0  0  0  0  0  0  0  0  0  0
   -0.7500    1.2990    0.0000 C   0  0  0  0  0  0  0  0  0  0  0  0
    0.7500    1.2990    0.0000 C   0  0  0  0  0  0  0  0  0  0  0  0
    3.0000   -2.5981    0.0000 N   0  0  0  0  0  0  0  0  0  0  0  0
    3.7500   -3.8971    0.0000 R   0  0  0  0  0  1  0  0  0  1  0  0
    6.0000   -2.5981    0.0000 R   0  0  0  0  0  1  0  0  0  2  0  0
  1  2  2  0
  2  3  1  0
  3  4  1  1
  4  5  1  0
  5  6  2  0
  6  7  1  0
  7  8  2  0
  8  9  1  0
  9 10  2  0
  3 11  1  0
 11 12  1  0
  2 13  1  0
 10  5  1  0
M  END
>  <id>  (86) 
c445224e-b9ab-4eba-8c94-0de95126f1ae

>  <Version>  (86) 
0

>  <Alias>  (86) 
Phe

>  <Type>  (86) 
amino_acid

>  <Smiles>  (86) 
O=C([C@H](Cc1ccccc1)N[*:1])[*:2]

>  <ProtectedSmiles>  (86) 
O=C(N[C@@H](Cc1ccccc1)C(=O)O)OCC1c2ccccc2-c2ccccc21

>  <CAS>  (86) 
35661-40-6

>  <User>  (86) 
sevan.h

>  <StereoComment>  (86) 
as drawn

>  <Name>  (86) 
Fmoc-Phe-OH

>  <Code>  (86) 
Phe

>  <AliasLowerCase>  (86) 
phe

>  <LatestVersion>  (86) 
0.0

>  <createdAt>  (86) 
2026-01-14T12:17:21.698Z

>  <updatedAt>  (86) 
2026-01-14T12:17:21.698Z

>  <NumRotatableBonds>  (86) 
4

>  <is_N_methyl>  (86) 
False

>  <is_a_methyl>  (86) 
False

>  <is_alpha_aa>  (86) 
True

>  <is_beta_aa>  (86) 
False

>  <is_S100_aa>  (86) 
False

>  <Murcko_SMILES>  (86) 
c1ccccc1

$$$$

     RDKit          2D

 18 19  0  0  0  0  0  0  0  0999 V2000
   -4.0667   -3.6527    0.0000 N   0  0  0  0  0  0  0  0  0  0  0  0
   -2.6401   -3.1891    0.0000 C   0  0  0  0  0  0  0  0  0  0  0  0
   -1.2135   -2.7256    0.0000 C   0  0  0  0  0  0  0  0  0  0  0  0
   -0.0000   -3.6073    0.0000 C   0  0  0  0  0  0  0  0  0  0  0  0
    1.2135   -2.7256    0.0000 N   0  0  0  0  0  0  0  0  0  0  0  0
    0.7500   -1.2990    0.0000 C   0  0  0  0  0  0  0  0  0  0  0  0
    1.5000    0.0000    0.0000 C   0  0  0  0  0  0  0  0  0  0  0  0
    0.7500    1.2990    0.0000 C   0  0  0  0  0  0  0  0  0  0  0  0
   -0.7500    1.2990    0.0000 C   0  0  0  0  0  0  0  0  0  0  0  0
   -1.5000    2.5981    0.0000 C   0  0  0  0  0  0  0  0  0  0  0  0
   -0.7500    3.8971    0.0000 C   0  0  0  0  0  0  0  0  0  0  0  0
    0.7500    3.8971    0.0000 N   0  0  0  0  0  0  0  0  0  0  0  0
    1.5000    5.1962    0.0000 R   0  0  0  0  0  1  0  0  0  1  0  0
   -1.5000    5.1962    0.0000 C   0  0  0  0  0  0  0  0  0  0  0  0
   -3.0000    5.1962    0.0000 O   0  0  0  0  0  0  0  0  0  0  0  0
   -0.7500    6.4952    0.0000 R   0  0  0  0  0  1  0  0  0  2  0  0
   -1.5000    0.0000    0.0000 C   0  0  0  0  0  0  0  0  0  0  0  0
   -0.7500   -1.2990    0.0000 C   0  0  0  0  0  0  0  0  0  0  0  0
  1  2  3  0
  2  3  1  0
  3  4  2  0
  4  5  1  0
  5  6  1  0
  6  7  2  0
  7  8  1  0
  8  9  2  0
  9 10  1  0
 11 10  1  1
 11 12  1  0
 12 13  1  0
 11 14  1  0
 14 15  2  0
 14 16  1  0
  9 17  1  0
 17 18  2  0
 18  3  1  0
 18  6  1  0
M  END
>  <id>  (87) 
bb626d38-a1c8-4958-85dd-4522133a1788

>  <Version>  (87) 
0

>  <Alias>  (87) 
(S)-3CN,5Ind-Ala

>  <Type>  (87) 
amino_acid

>  <Smiles>  (87) 
N#Cc1c[nH]c2ccc(C[C@H](N[*:1])C(=O)[*:2])cc12

>  <ProtectedSmiles>  (87) 
N#Cc1c[nH]c2ccc(C[C@H](NC(=O)OCC3c4ccccc4-c4ccccc43)C(=O)O)cc12

>  <CAS>  (87) 


>  <User>  (87) 
cs@orbismedicines.com

>  <StereoComment>  (87) 
as drawn

>  <Name>  (87) 
(S)-Fmoc-5-(3-cyano-indole)-Alanine

>  <Code>  (87) 
(R)-3CN,5Ind-Ala

>  <AliasLowerCase>  (87) 
(s)-3cn,5ind-ala

>  <LatestVersion>  (87) 
1.0

>  <createdAt>  (87) 
2026-02-19T11:23:24.202Z

>  <updatedAt>  (87) 
2026-02-21T10:48:37.662Z

>  <NumRotatableBonds>  (87) 
4

>  <is_N_methyl>  (87) 
False

>  <is_a_methyl>  (87) 
False

>  <is_alpha_aa>  (87) 
True

>  <is_beta_aa>  (87) 
False

>  <is_S100_aa>  (87) 
False

>  <Murcko_SMILES>  (87) 
c1ccc2[nH]ccc2c1

$$$$

     RDKit          2D

 18 19  0  0  0  0  0  0  0  0999 V2000
   -4.0667   -3.6527    0.0000 N   0  0  0  0  0  0  0  0  0  0  0  0
   -2.6401   -3.1891    0.0000 C   0  0  0  0  0  0  0  0  0  0  0  0
   -1.2135   -2.7256    0.0000 C   0  0  0  0  0  0  0  0  0  0  0  0
   -0.0000   -3.6073    0.0000 C   0  0  0  0  0  0  0  0  0  0  0  0
    1.2135   -2.7256    0.0000 N   0  0  0  0  0  0  0  0  0  0  0  0
    0.7500   -1.2990    0.0000 C   0  0  0  0  0  0  0  0  0  0  0  0
    1.5000    0.0000    0.0000 C   0  0  0  0  0  0  0  0  0  0  0  0
    0.7500    1.2990    0.0000 C   0  0  0  0  0  0  0  0  0  0  0  0
   -0.7500    1.2990    0.0000 C   0  0  0  0  0  0  0  0  0  0  0  0
   -1.5000    2.5981    0.0000 C   0  0  0  0  0  0  0  0  0  0  0  0
   -0.7500    3.8971    0.0000 C   0  0  0  0  0  0  0  0  0  0  0  0
    0.7500    3.8971    0.0000 N   0  0  0  0  0  0  0  0  0  0  0  0
    1.5000    5.1962    0.0000 R   0  0  0  0  0  1  0  0  0  1  0  0
   -1.5000    5.1962    0.0000 C   0  0  0  0  0  0  0  0  0  0  0  0
   -3.0000    5.1962    0.0000 O   0  0  0  0  0  0  0  0  0  0  0  0
   -0.7500    6.4952    0.0000 R   0  0  0  0  0  1  0  0  0  2  0  0
   -1.5000    0.0000    0.0000 C   0  0  0  0  0  0  0  0  0  0  0  0
   -0.7500   -1.2990    0.0000 C   0  0  0  0  0  0  0  0  0  0  0  0
  1  2  3  0
  2  3  1  0
  3  4  2  0
  4  5  1  0
  5  6  1  0
  6  7  2  0
  7  8  1  0
  8  9  2  0
  9 10  1  0
 11 10  1  1
 11 12  1  0
 12 13  1  0
 11 14  1  0
 14 15  2  0
 14 16  1  0
  9 17  1  0
 17 18  2  0
 18  3  1  0
 18  6  1  0
M  END
>  <id>  (88) 
bb626d38-a1c8-4958-85dd-4522133a1788

>  <Version>  (88) 
1

>  <Alias>  (88) 
(R)-3CN,5Ind-Ala

>  <Type>  (88) 
amino_acid

>  <Smiles>  (88) 
N#Cc1c[nH]c2ccc(C[C@H](N[*:1])C(=O)[*:2])cc12

>  <ProtectedSmiles>  (88) 
N#Cc1c[nH]c2ccc(C[C@H](NC(=O)OCC3c4ccccc4-c4ccccc43)C(=O)O)cc12

>  <CAS>  (88) 


>  <User>  (88) 
mlg@orbismedicines.com

>  <StereoComment>  (88) 
as drawn

>  <Name>  (88) 
(S)-Fmoc-5-(3-cyano-indole)-Alanine

>  <Code>  (88) 
(R)-3CN,5Ind-Ala

>  <AliasLowerCase>  (88) 
(r)-3cn,5ind-ala

>  <LatestVersion>  (88) 
nan

>  <createdAt>  (88) 
2026-02-19T11:23:24.202Z

>  <updatedAt>  (88) 
2026-02-19T11:23:24.202Z

>  <NumRotatableBonds>  (88) 
4

>  <is_N_methyl>  (88) 
False

>  <is_a_methyl>  (88) 
False

>  <is_alpha_aa>  (88) 
True

>  <is_beta_aa>  (88) 
False

>  <is_S100_aa>  (88) 
False

>  <Murcko_SMILES>  (88) 
c1ccc2[nH]ccc2c1

$$$$

     RDKit          2D

  0  0  0  0  0  0  0  0  0  0999 V3000
M  V30 BEGIN CTAB
M  V30 COUNTS 16 17 0 0 0
M  V30 BEGIN ATOM
M  V30 1 O -1.581022 -3.165545 0.000000 0
M  V30 2 C -0.577326 -4.280262 0.000000 0
M  V30 3 C 0.889895 -3.968394 0.000000 0
M  V30 4 C 2.004612 -4.972090 0.000000 0
M  V30 5 N 3.303650 -4.222090 0.000000 0
M  V30 6 "NOT [H]" 4.673969 -4.832195 0.000000 1
M  V30 7 C 2.991783 -2.754869 0.000000 0
M  V30 8 C 1.500000 -2.598076 0.000000 0
M  V30 9 C 0.750000 -1.299038 0.000000 0
M  V30 10 C 1.500000 0.000000 0.000000 0
M  V30 11 C 0.750000 1.299038 0.000000 0
M  V30 12 C -0.750000 1.299038 0.000000 0
M  V30 13 F -1.500000 2.598076 0.000000 0
M  V30 14 C -1.500000 0.000000 0.000000 0
M  V30 15 C -0.750000 -1.299038 0.000000 0
M  V30 16 "NOT [H]" -1.040852 -5.706847 0.000000 2
M  V30 END ATOM
M  V30 BEGIN BOND
M  V30 1 2 1 2
M  V30 2 1 3 2 CFG=1
M  V30 3 1 3 4
M  V30 4 1 4 5
M  V30 5 1 5 6
M  V30 6 1 5 7
M  V30 7 1 7 8
M  V30 8 1 8 9 CFG=3
M  V30 9 2 9 10
M  V30 10 1 10 11
M  V30 11 2 11 12
M  V30 12 1 12 13
M  V30 13 1 12 14
M  V30 14 2 14 15
M  V30 15 1 2 16
M  V30 16 1 8 3
M  V30 17 1 15 9
M  V30 END BOND
M  V30 BEGIN COLLECTION
M  V30 MDLV30/STERAC1 ATOMS=(2 3 8)
M  V30 END COLLECTION
M  V30 END CTAB
M  END
>  <id>  (89) 
eea3dbdd-d5b5-4f74-afbf-e95b1516b46a

>  <Version>  (89) 
0

>  <Alias>  (89) 
rel-(3R,4S)(4FPh)Pro

>  <Type>  (89) 
amino_acid

>  <Smiles>  (89) 
O=C([C@@H]1CN([*:1])C[C@H]1c1ccc(F)cc1)[*:2] |&1:2,7|

>  <ProtectedSmiles>  (89) 
O=C(O)[C@@H]1CN(C(=O)OCC2c3ccccc3-c3ccccc32)C[C@H]1c1ccc(F)cc1 |&1:3,24|

>  <CAS>  (89) 
2127056-86-2

>  <User>  (89) 
mischa.s

>  <StereoComment>  (89) 
racemic

>  <Name>  (89) 
rel-(3R,4S)-1-{[(9H-fluoren-9-yl)methoxy]carbonyl}-4-(4-fluorophenyl)pyrrolidine-3-carboxylic acid

>  <Code>  (89) 
rel-(3R,4S)(4FPh)Pro

>  <AliasLowerCase>  (89) 
rel-(3r,4s)(4fph)pro

>  <LatestVersion>  (89) 
0.0

>  <createdAt>  (89) 
2026-01-14T11:32:29.088Z

>  <updatedAt>  (89) 
2026-01-14T11:32:29.088Z

>  <NumRotatableBonds>  (89) 
2

>  <is_N_methyl>  (89) 
False

>  <is_a_methyl>  (89) 
False

>  <is_alpha_aa>  (89) 
False

>  <is_beta_aa>  (89) 
True

>  <is_S100_aa>  (89) 
False

>  <Murcko_SMILES>  (89) 
c1ccc([C@H]2CCNC2)cc1 |&1:4|

$$$$

     RDKit          2D

 10  9  0  0  0  0  0  0  0  0999 V2000
    7.7942   -0.0000    0.0000 C   0  0  0  0  0  0  0  0  0  0  0  0
    6.4952    0.7500    0.0000 S   0  0  0  0  0  0  0  0  0  0  0  0
    5.1962   -0.0000    0.0000 C   0  0  0  0  0  0  0  0  0  0  0  0
    3.8971    0.7500    0.0000 C   0  0  0  0  0  0  0  0  0  0  0  0
    2.5981   -0.0000    0.0000 C   0  0  0  0  0  0  0  0  0  0  0  0
    1.2990    0.7500    0.0000 N   0  0  0  0  0  0  0  0  0  0  0  0
    0.0000    0.0000    0.0000 R   0  0  0  0  0  1  0  0  0  1  0  0
    2.5981   -1.5000    0.0000 C   0  0  0  0  0  0  0  0  0  0  0  0
    1.2990   -2.2500    0.0000 O   0  0  0  0  0  0  0  0  0  0  0  0
    3.8971   -2.2500    0.0000 R   0  0  0  0  0  1  0  0  0  2  0  0
  1  2  1  0
  2  3  1  0
  3  4  1  0
  5  4  1  6
  5  6  1  0
  6  7  1  0
  5  8  1  0
  8  9  2  0
  8 10  1  0
M  END
>  <id>  (90) 
33eacf32-5654-466c-8a6f-ef458ce3a192

>  <Version>  (90) 
0

>  <Alias>  (90) 
D-Met

>  <Type>  (90) 
amino_acid

>  <Smiles>  (90) 
CSCC[C@@H](N[*:1])C(=O)[*:2]

>  <ProtectedSmiles>  (90) 
CSCC[C@@H](NC(=O)OCC1c2ccccc2-c2ccccc21)C(=O)O

>  <CAS>  (90) 
112883-40-6

>  <User>  (90) 
emile.b

>  <StereoComment>  (90) 
as drawn

>  <Name>  (90) 
Fmoc-D-Met-OH

>  <Code>  (90) 
D-Met

>  <AliasLowerCase>  (90) 
d-met

>  <LatestVersion>  (90) 
0.0

>  <createdAt>  (90) 
2026-01-14T11:35:41.310Z

>  <updatedAt>  (90) 
2026-01-14T11:35:41.310Z

>  <NumRotatableBonds>  (90) 
5

>  <is_N_methyl>  (90) 
False

>  <is_a_methyl>  (90) 
False

>  <is_alpha_aa>  (90) 
True

>  <is_beta_aa>  (90) 
False

>  <is_S100_aa>  (90) 
False

>  <Murcko_SMILES>  (90) 


$$$$

     RDKit          2D

 12 12  0  0  0  0  0  0  0  0999 V2000
    4.1291   -0.9271    0.0000 O   0  0  0  0  0  0  0  0  0  0  0  0
    3.8173    0.5402    0.0000 C   0  0  0  0  0  0  0  0  0  0  0  0
    2.3907    1.0037    0.0000 C   0  0  0  0  0  0  0  0  0  0  0  0
    1.2760    0.0000    0.0000 C   0  0  0  0  0  0  0  0  0  0  0  0
    2.3907   -1.0037    0.0000 C   0  0  0  0  0  0  0  0  0  0  0  0
    2.0788   -2.4709    0.0000 N   0  0  0  0  0  0  0  0  0  0  0  0
    3.1935   -3.4746    0.0000 R   0  0  0  0  0  1  0  0  0  1  0  0
    0.3943    1.2135    0.0000 C   0  0  0  0  0  0  0  0  0  0  0  0
   -1.0323    0.7500    0.0000 C   0  0  0  0  0  0  0  0  0  0  0  0
   -1.0323   -0.7500    0.0000 C   0  0  0  0  0  0  0  0  0  0  0  0
    0.3943   -1.2135    0.0000 C   0  0  0  0  0  0  0  0  0  0  0  0
    4.9320    1.5439    0.0000 R   0  0  0  0  0  1  0  0  0  2  0  0
  1  2  2  0
  2  3  1  0
  3  4  1  0
  4  5  1  0
  5  6  1  0
  6  7  1  0
  4  8  1  0
  8  9  1  0
  9 10  1  0
 10 11  1  0
  2 12  1  0
 11  4  1  0
M  END
>  <id>  (91) 
4a1f1d04-2c18-44cf-ba8a-fb70beac67fa

>  <Version>  (91) 
0

>  <Alias>  (91) 
CPentAcA

>  <Type>  (91) 
amino_acid

>  <Smiles>  (91) 
O=C(CC1(CN[*:1])CCCC1)[*:2]

>  <ProtectedSmiles>  (91) 
O=C(O)CC1(CNC(=O)OCC2c3ccccc3-c3ccccc32)CCCC1

>  <CAS>  (91) 
2095411-04-2

>  <User>  (91) 
Sevan.habeshian@orbismedicines.com

>  <StereoComment>  (91) 
as drawn

>  <Name>  (91) 
N/A

>  <Code>  (91) 
CPentAcA

>  <AliasLowerCase>  (91) 
cpentaca

>  <LatestVersion>  (91) 
0.0

>  <createdAt>  (91) 
2026-02-13T09:56:35.398Z

>  <updatedAt>  (91) 
2026-02-13T09:56:35.398Z

>  <NumRotatableBonds>  (91) 
4

>  <is_N_methyl>  (91) 
False

>  <is_a_methyl>  (91) 
False

>  <is_alpha_aa>  (91) 
False

>  <is_beta_aa>  (91) 
False

>  <is_S100_aa>  (91) 
False

>  <Murcko_SMILES>  (91) 
C1CCCC1

$$$$

     RDKit          2D

 15 15  0  0  0  0  0  0  0  0999 V2000
    3.7500   -1.2990    0.0000 C   0  0  0  0  0  0  0  0  0  0  0  0
    3.0000    0.0000    0.0000 O   0  0  0  0  0  0  0  0  0  0  0  0
    1.5000    0.0000    0.0000 C   0  0  0  0  0  0  0  0  0  0  0  0
    0.7500   -1.2990    0.0000 C   0  0  0  0  0  0  0  0  0  0  0  0
   -0.7500   -1.2990    0.0000 C   0  0  0  0  0  0  0  0  0  0  0  0
   -1.5000    0.0000    0.0000 C   0  0  0  0  0  0  0  0  0  0  0  0
   -3.0000    0.0000    0.0000 C   0  0  0  0  0  0  0  0  0  0  0  0
   -3.7500    1.2990    0.0000 C   0  0  0  0  0  0  0  0  0  0  0  0
   -5.2500    1.2990    0.0000 C   0  0  0  0  0  0  0  0  0  0  0  0
   -6.0000   -0.0000    0.0000 O   0  0  0  0  0  0  0  0  0  0  0  0
   -6.0000    2.5981    0.0000 R   0  0  0  0  0  1  0  0  0  2  0  0
   -3.7500   -1.2990    0.0000 N   0  0  0  0  0  0  0  0  0  0  0  0
   -5.2500   -1.2990    0.0000 R   0  0  0  0  0  1  0  0  0  1  0  0
   -0.7500    1.2990    0.0000 C   0  0  0  0  0  0  0  0  0  0  0  0
    0.7500    1.2990    0.0000 C   0  0  0  0  0  0  0  0  0  0  0  0
  1  2  1  0
  2  3  1  0
  3  4  2  0
  4  5  1  0
  5  6  2  0
  6  7  1  0
  7  8  1  0
  8  9  1  0
  9 10  2  0
  9 11  1  0
  7 12  1  0
 12 13  1  0
  6 14  1  0
 14 15  2  0
 15  3  1  0
M  END
>  <id>  (92) 
62f8af9a-008f-4979-91e7-4f14b08523bb

>  <Version>  (92) 
0

>  <Alias>  (92) 
4MeOPhePa

>  <Type>  (92) 
amino_acid

>  <Smiles>  (92) 
COc1ccc(C(CC(=O)[*:2])N[*:1])cc1

>  <ProtectedSmiles>  (92) 
COc1ccc(C(CC(=O)O)NC(=O)OCC2c3ccccc3-c3ccccc32)cc1

>  <CAS>  (92) 
284492-02-0

>  <User>  (92) 
mischa.s

>  <StereoComment>  (92) 
as drawn

>  <Name>  (92) 
3-N-FMOC-3-(4-METHOXYPHENYL)PROPIONIC ACID

>  <Code>  (92) 
4MeOPhePa

>  <AliasLowerCase>  (92) 
4meophepa

>  <LatestVersion>  (92) 
0.0

>  <createdAt>  (92) 
2026-01-14T11:37:30.944Z

>  <updatedAt>  (92) 
2026-01-14T11:37:30.944Z

>  <NumRotatableBonds>  (92) 
5

>  <is_N_methyl>  (92) 
False

>  <is_a_methyl>  (92) 
False

>  <is_alpha_aa>  (92) 
False

>  <is_beta_aa>  (92) 
True

>  <is_S100_aa>  (92) 
False

>  <Murcko_SMILES>  (92) 
c1ccccc1

$$$$

     RDKit          2D

 10  9  0  0  0  0  0  0  0  0999 V2000
    5.1962    4.5000    0.0000 C   0  0  0  0  0  0  0  0  0  0  0  0
    5.1962    3.0000    0.0000 C   0  0  0  0  0  0  0  0  0  0  0  0
    6.4952    2.2500    0.0000 C   0  0  0  0  0  0  0  0  0  0  0  0
    3.8971    2.2500    0.0000 C   0  0  0  0  0  0  0  0  0  0  0  0
    3.8971    0.7500    0.0000 N   0  0  0  0  0  0  0  0  0  0  0  0
    2.5981   -0.0000    0.0000 C   0  0  0  0  0  0  0  0  0  0  0  0
    1.2990    0.7500    0.0000 C   0  0  0  0  0  0  0  0  0  0  0  0
    1.2990    2.2500    0.0000 O   0  0  0  0  0  0  0  0  0  0  0  0
    0.0000    0.0000    0.0000 R   0  0  0  0  0  1  0  0  0  2  0  0
    5.1962   -0.0000    0.0000 R   0  0  0  0  0  1  0  0  0  1  0  0
  1  2  1  0
  2  3  1  0
  2  4  1  0
  4  5  1  0
  5  6  1  0
  6  7  1  0
  7  8  2  0
  7  9  1  0
  5 10  1  0
M  END
>  <id>  (93) 
f5f83fcd-1233-4b32-b6fb-31c4d866c4ae

>  <Version>  (93) 
0

>  <Alias>  (93) 
NLeuGly

>  <Type>  (93) 
amino_acid

>  <Smiles>  (93) 
CC(C)CN(CC(=O)[*:2])[*:1]

>  <ProtectedSmiles>  (93) 
CC(C)CN(CC(=O)O)C(=O)OCC1c2ccccc2-c2ccccc21

>  <CAS>  (93) 
141743-14-8

>  <User>  (93) 
emile.b

>  <StereoComment>  (93) 
as drawn

>  <Name>  (93) 
Fmoc-N(Leu)-Gly-OH

>  <Code>  (93) 
NLeuGly

>  <AliasLowerCase>  (93) 
nleugly

>  <LatestVersion>  (93) 
0.0

>  <createdAt>  (93) 
2026-01-14T11:34:33.755Z

>  <updatedAt>  (93) 
2026-01-14T11:34:33.755Z

>  <NumRotatableBonds>  (93) 
4

>  <is_N_methyl>  (93) 
False

>  <is_a_methyl>  (93) 
False

>  <is_alpha_aa>  (93) 
True

>  <is_beta_aa>  (93) 
False

>  <is_S100_aa>  (93) 
False

>  <Murcko_SMILES>  (93) 


$$$$

     RDKit          2D

 12 12  0  0  0  0  0  0  0  0999 V2000
    3.0000   -2.5981    0.0000 O   0  0  0  0  0  0  0  0  0  0  0  0
    3.7500   -1.2990    0.0000 C   0  0  0  0  0  0  0  0  0  0  0  0
    3.0000    0.0000    0.0000 C   0  0  0  0  0  0  0  0  0  0  0  0
    3.7500    1.2990    0.0000 N   0  0  0  0  0  0  0  0  0  0  0  0
    5.2500    1.2990    0.0000 R   0  0  0  0  0  1  0  0  0  1  0  0
    1.5000    0.0000    0.0000 C   0  0  0  0  0  0  0  0  0  0  0  0
    0.7500   -1.2990    0.0000 C   0  0  0  0  0  0  0  0  0  0  0  0
   -0.7500   -1.2990    0.0000 C   0  0  0  0  0  0  0  0  0  0  0  0
   -1.5000    0.0000    0.0000 C   0  0  0  0  0  0  0  0  0  0  0  0
   -0.7500    1.2990    0.0000 C   0  0  0  0  0  0  0  0  0  0  0  0
    0.7500    1.2990    0.0000 C   0  0  0  0  0  0  0  0  0  0  0  0
    5.2500   -1.2990    0.0000 R   0  0  0  0  0  1  0  0  0  2  0  0
  1  2  2  0
  2  3  1  0
  3  4  1  0
  4  5  1  0
  3  6  1  0
  6  7  2  0
  7  8  1  0
  8  9  2  0
  9 10  1  0
 10 11  2  0
  2 12  1  0
 11  6  1  0
M  END
>  <id>  (94) 
7ad25688-d298-478f-9f0d-063f55dc696c

>  <Version>  (94) 
0

>  <Alias>  (94) 
rac-Phg

>  <Type>  (94) 
amino_acid

>  <Smiles>  (94) 
O=C(C(N[*:1])c1ccccc1)[*:2]

>  <ProtectedSmiles>  (94) 
O=C(NC(C(=O)O)c1ccccc1)OCC1c2ccccc2-c2ccccc21

>  <CAS>  (94) 
163883-97-4

>  <User>  (94) 
clement.gensous@orbismedicines.com

>  <StereoComment>  (94) 
as drawn

>  <Name>  (94) 
rac-Phg

>  <Code>  (94) 
rac-Phg

>  <AliasLowerCase>  (94) 
rac-phg

>  <LatestVersion>  (94) 
0.0

>  <createdAt>  (94) 
2026-01-15T09:28:49.841Z

>  <updatedAt>  (94) 
2026-01-15T09:28:49.841Z

>  <NumRotatableBonds>  (94) 
3

>  <is_N_methyl>  (94) 
False

>  <is_a_methyl>  (94) 
False

>  <is_alpha_aa>  (94) 
True

>  <is_beta_aa>  (94) 
False

>  <is_S100_aa>  (94) 
False

>  <Murcko_SMILES>  (94) 
c1ccccc1

$$$$

     RDKit          2D

 11 11  0  0  0  0  0  0  0  0999 V2000
    2.3886    2.4414    0.0000 O   0  0  0  0  0  0  0  0  0  0  0  0
    2.6491    0.9642    0.0000 C   0  0  0  0  0  0  0  0  0  0  0  0
    1.5000    0.0000    0.0000 C   0  0  0  0  0  0  0  0  0  0  0  0
    2.6491   -0.9642    0.0000 N   0  0  0  0  0  0  0  0  0  0  0  0
    2.3886   -2.4414    0.0000 R   0  0  0  0  0  1  0  0  0  1  0  0
    0.7500   -1.2990    0.0000 C   0  0  0  0  0  0  0  0  0  0  0  0
   -0.7500   -1.2990    0.0000 C   0  0  0  0  0  0  0  0  0  0  0  0
   -1.5000    0.0000    0.0000 O   0  0  0  0  0  0  0  0  0  0  0  0
   -0.7500    1.2990    0.0000 C   0  0  0  0  0  0  0  0  0  0  0  0
    0.7500    1.2990    0.0000 C   0  0  0  0  0  0  0  0  0  0  0  0
    4.0586    0.4512    0.0000 R   0  0  0  0  0  1  0  0  0  2  0  0
  1  2  2  0
  2  3  1  0
  3  4  1  0
  4  5  1  0
  3  6  1  0
  6  7  1  0
  7  8  1  0
  8  9  1  0
  9 10  1  0
  2 11  1  0
 10  3  1  0
M  END
>  <id>  (95) 
740c032b-9edd-4062-a994-811fce25d09b

>  <Version>  (95) 
0

>  <Alias>  (95) 
4THP

>  <Type>  (95) 
amino_acid

>  <Smiles>  (95) 
O=C(C1(N[*:1])CCOCC1)[*:2]

>  <ProtectedSmiles>  (95) 
O=C(NC1(C(=O)O)CCOCC1)OCC1c2ccccc2-c2ccccc21

>  <CAS>  (95) 
285996-72-7

>  <User>  (95) 
sevan.h

>  <StereoComment>  (95) 
as drawn

>  <Name>  (95) 
Fmoc-4-amino-tetrahydropyran-4-carboxylic acid

>  <Code>  (95) 
4THP

>  <AliasLowerCase>  (95) 
4thp

>  <LatestVersion>  (95) 
0.0

>  <createdAt>  (95) 
2026-01-14T12:15:23.520Z

>  <updatedAt>  (95) 
2026-01-14T12:15:23.520Z

>  <NumRotatableBonds>  (95) 
2

>  <is_N_methyl>  (95) 
False

>  <is_a_methyl>  (95) 
False

>  <is_alpha_aa>  (95) 
True

>  <is_beta_aa>  (95) 
False

>  <is_S100_aa>  (95) 
False

>  <Murcko_SMILES>  (95) 
C1CCOCC1

$$$$

     RDKit          2D

 14 15  0  0  0  0  0  0  0  0999 V2000
   -1.2135   -5.3237    0.0000 O   0  0  0  0  0  0  0  0  0  0  0  0
   -1.9635   -4.0247    0.0000 C   0  0  0  0  0  0  0  0  0  0  0  0
   -1.2135   -2.7256    0.0000 C   0  0  0  0  0  0  0  0  0  0  0  0
   -2.5838   -2.1155    0.0000 N   0  0  0  0  0  0  0  0  0  0  0  0
   -3.7974   -2.9972    0.0000 R   0  0  0  0  0  1  0  0  0  1  0  0
   -0.0000   -3.6073    0.0000 C   0  0  0  0  0  0  0  0  0  0  0  0
    1.2135   -2.7256    0.0000 C   0  0  0  0  0  0  0  0  0  0  0  0
    0.7500   -1.2990    0.0000 C   0  0  0  0  0  0  0  0  0  0  0  0
    1.5000    0.0000    0.0000 C   0  0  0  0  0  0  0  0  0  0  0  0
    0.7500    1.2990    0.0000 C   0  0  0  0  0  0  0  0  0  0  0  0
   -0.7500    1.2990    0.0000 C   0  0  0  0  0  0  0  0  0  0  0  0
   -1.5000    0.0000    0.0000 C   0  0  0  0  0  0  0  0  0  0  0  0
   -0.7500   -1.2990    0.0000 C   0  0  0  0  0  0  0  0  0  0  0  0
   -3.4635   -4.0247    0.0000 R   0  0  0  0  0  1  0  0  0  2  0  0
  1  2  2  0
  2  3  1  0
  3  4  1  0
  4  5  1  0
  3  6  1  0
  6  7  1  0
  7  8  1  0
  8  9  2  0
  9 10  1  0
 10 11  2  0
 11 12  1  0
 12 13  2  0
  2 14  1  0
 13  3  1  0
 13  8  1  0
M  END
>  <id>  (96) 
4e08b11f-991d-497c-9292-65fa9cfce93f

>  <Version>  (96) 
0

>  <Alias>  (96) 
1-Ind

>  <Type>  (96) 
amino_acid

>  <Smiles>  (96) 
O=C(C1(N[*:1])CCc2ccccc21)[*:2]

>  <ProtectedSmiles>  (96) 
O=C(NC1(C(=O)O)CCc2ccccc21)OCC1c2ccccc2-c2ccccc21

>  <CAS>  (96) 
214139-28-3

>  <User>  (96) 
Sevan.habeshian@orbismedicines.com

>  <StereoComment>  (96) 
as drawn

>  <Name>  (96) 
N/A

>  <Code>  (96) 
1-Ind

>  <AliasLowerCase>  (96) 
1-ind

>  <LatestVersion>  (96) 
0.0

>  <createdAt>  (96) 
2026-02-13T09:56:36.370Z

>  <updatedAt>  (96) 
2026-02-13T09:56:36.370Z

>  <NumRotatableBonds>  (96) 
2

>  <is_N_methyl>  (96) 
False

>  <is_a_methyl>  (96) 
False

>  <is_alpha_aa>  (96) 
True

>  <is_beta_aa>  (96) 
False

>  <is_S100_aa>  (96) 
False

>  <Murcko_SMILES>  (96) 
c1ccc2c(c1)CCC2

$$$$

     RDKit          2D

  8  7  0  0  0  0  0  0  0  0999 V2000
    1.2990   -2.2500    0.0000 O   0  0  0  0  0  0  0  0  0  0  0  0
    2.5981   -1.5000    0.0000 C   0  0  0  0  0  0  0  0  0  0  0  0
    2.5981   -0.0000    0.0000 C   0  0  0  0  0  0  0  0  0  0  0  0
    3.8971    0.7500    0.0000 C   0  0  0  0  0  0  0  0  0  0  0  0
    5.1962   -0.0000    0.0000 O   0  0  0  0  0  0  0  0  0  0  0  0
    1.2990    0.7500    0.0000 N   0  0  0  0  0  0  0  0  0  0  0  0
    0.0000    0.0000    0.0000 R   0  0  0  0  0  1  0  0  0  1  0  0
    3.8971   -2.2500    0.0000 R   0  0  0  0  0  1  0  0  0  2  0  0
  1  2  2  0
  2  3  1  0
  3  4  1  1
  4  5  1  0
  3  6  1  0
  6  7  1  0
  2  8  1  0
M  END
>  <id>  (97) 
a9a985d4-c796-4e13-8826-ea66f089eb88

>  <Version>  (97) 
0

>  <Alias>  (97) 
Ser(THP)

>  <Type>  (97) 
amino_acid

>  <Smiles>  (97) 
O=C([C@H](CO)N[*:1])[*:2]

>  <ProtectedSmiles>  (97) 
O=C(N[C@@H](COC1CCCCO1)C(=O)O)OCC1c2ccccc2-c2ccccc21

>  <CAS>  (97) 
2254698-75-2

>  <User>  (97) 
sevan.h

>  <StereoComment>  (97) 
as drawn

>  <Name>  (97) 
Fmoc-Ser(THP)-OH

>  <Code>  (97) 
Ser(THP)

>  <AliasLowerCase>  (97) 
ser(thp)

>  <LatestVersion>  (97) 
0.0

>  <createdAt>  (97) 
2026-01-14T11:37:47.021Z

>  <updatedAt>  (97) 
2026-01-14T11:37:47.021Z

>  <NumRotatableBonds>  (97) 
3

>  <is_N_methyl>  (97) 
False

>  <is_a_methyl>  (97) 
False

>  <is_alpha_aa>  (97) 
True

>  <is_beta_aa>  (97) 
False

>  <is_S100_aa>  (97) 
False

>  <Murcko_SMILES>  (97) 


$$$$

     RDKit          2D

  9  8  0  0  0  0  0  0  0  0999 V2000
    5.1962   -0.0000    0.0000 C   0  0  0  0  0  0  0  0  0  0  0  0
    3.8971    0.7500    0.0000 C   0  0  0  0  0  0  0  0  0  0  0  0
    3.8971    2.2500    0.0000 O   0  0  0  0  0  0  0  0  0  0  0  0
    2.5981   -0.0000    0.0000 C   0  0  0  0  0  0  0  0  0  0  0  0
    1.2990    0.7500    0.0000 N   0  0  0  0  0  0  0  0  0  0  0  0
    0.0000    0.0000    0.0000 R   0  0  0  0  0  1  0  0  0  1  0  0
    2.5981   -1.5000    0.0000 C   0  0  0  0  0  0  0  0  0  0  0  0
    1.2990   -2.2500    0.0000 O   0  0  0  0  0  0  0  0  0  0  0  0
    3.8971   -2.2500    0.0000 R   0  0  0  0  0  1  0  0  0  2  0  0
  2  1  1  6
  2  3  1  0
  2  4  1  0
  4  5  1  1
  5  6  1  0
  4  7  1  0
  7  8  2  0
  7  9  1  0
M  END
>  <id>  (98) 
aa622b36-7ae4-434b-a66a-3bcb71aa23d2

>  <Version>  (98) 
0

>  <Alias>  (98) 
Thr

>  <Type>  (98) 
amino_acid

>  <Smiles>  (98) 
C[C@@H](O)[C@H](N[*:1])C(=O)[*:2]

>  <ProtectedSmiles>  (98) 
C[C@@H](OC(C)(C)C)[C@H](NC(=O)OCC1c2ccccc2-c2ccccc21)C(=O)O

>  <CAS>  (98) 
71989-35-0

>  <User>  (98) 
sevan.h

>  <StereoComment>  (98) 
as drawn

>  <Name>  (98) 
Fmoc-Thr(tBu)-OH

>  <Code>  (98) 
Thr

>  <AliasLowerCase>  (98) 
thr

>  <LatestVersion>  (98) 
0.0

>  <createdAt>  (98) 
2026-01-14T12:17:18.025Z

>  <updatedAt>  (98) 
2026-01-14T12:17:18.025Z

>  <NumRotatableBonds>  (98) 
3

>  <is_N_methyl>  (98) 
False

>  <is_a_methyl>  (98) 
False

>  <is_alpha_aa>  (98) 
True

>  <is_beta_aa>  (98) 
False

>  <is_S100_aa>  (98) 
False

>  <Murcko_SMILES>  (98) 


$$$$

     RDKit          2D

  9  8  0  0  0  0  0  0  0  0999 V2000
    6.4952    0.7500    0.0000 C   0  0  0  0  0  0  0  0  0  0  0  0
    5.1962   -0.0000    0.0000 O   0  0  0  0  0  0  0  0  0  0  0  0
    3.8971    0.7500    0.0000 C   0  0  0  0  0  0  0  0  0  0  0  0
    2.5981   -0.0000    0.0000 C   0  0  0  0  0  0  0  0  0  0  0  0
    1.2990    0.7500    0.0000 N   0  0  0  0  0  0  0  0  0  0  0  0
    0.0000    0.0000    0.0000 R   0  0  0  0  0  1  0  0  0  1  0  0
    2.5981   -1.5000    0.0000 C   0  0  0  0  0  0  0  0  0  0  0  0
    1.2990   -2.2500    0.0000 O   0  0  0  0  0  0  0  0  0  0  0  0
    3.8971   -2.2500    0.0000 R   0  0  0  0  0  1  0  0  0  2  0  0
  1  2  1  0
  2  3  1  0
  4  3  1  6
  4  5  1  0
  5  6  1  0
  4  7  1  0
  7  8  2  0
  7  9  1  0
M  END
>  <id>  (99) 
b8c5eb83-a24c-46a0-a296-8a584b06f592

>  <Version>  (99) 
0

>  <Alias>  (99) 
D-Ser(OMe)

>  <Type>  (99) 
amino_acid

>  <Smiles>  (99) 
COC[C@@H](N[*:1])C(=O)[*:2]

>  <ProtectedSmiles>  (99) 
COC[C@@H](NC(=O)OCC1c2ccccc2-c2ccccc21)C(=O)O

>  <CAS>  (99) 
1279032-69-7

>  <User>  (99) 
mischa.s

>  <StereoComment>  (99) 
as drawn

>  <Name>  (99) 
Fmoc-D-Ser(OMe)-OH

>  <Code>  (99) 
D-Ser(OMe)

>  <AliasLowerCase>  (99) 
d-ser(ome)

>  <LatestVersion>  (99) 
0.0

>  <createdAt>  (99) 
2026-01-14T11:38:28.314Z

>  <updatedAt>  (99) 
2026-01-14T11:38:28.314Z

>  <NumRotatableBonds>  (99) 
4

>  <is_N_methyl>  (99) 
False

>  <is_a_methyl>  (99) 
False

>  <is_alpha_aa>  (99) 
True

>  <is_beta_aa>  (99) 
False

>  <is_S100_aa>  (99) 
False

>  <Murcko_SMILES>  (99) 


$$$$

     RDKit          2D

 12 12  0  0  0  0  0  0  0  0999 V2000
    3.0000   -2.5981    0.0000 O   0  0  0  0  0  0  0  0  0  0  0  0
    3.7500   -1.2990    0.0000 C   0  0  0  0  0  0  0  0  0  0  0  0
    3.0000    0.0000    0.0000 C   0  0  0  0  0  0  0  0  0  0  0  0
    1.5000    0.0000    0.0000 C   0  0  0  0  0  0  0  0  0  0  0  0
    0.7500   -1.2990    0.0000 C   0  0  0  0  0  0  0  0  0  0  0  0
   -0.7500   -1.2990    0.0000 C   0  0  0  0  0  0  0  0  0  0  0  0
   -1.5000    0.0000    0.0000 C   0  0  0  0  0  0  0  0  0  0  0  0
   -0.7500    1.2990    0.0000 C   0  0  0  0  0  0  0  0  0  0  0  0
    0.7500    1.2990    0.0000 C   0  0  0  0  0  0  0  0  0  0  0  0
    1.5000    2.5981    0.0000 N   0  0  0  0  0  0  0  0  0  0  0  0
    0.7500    3.8971    0.0000 R   0  0  0  0  0  1  0  0  0  1  0  0
    5.2500   -1.2990    0.0000 R   0  0  0  0  0  1  0  0  0  2  0  0
  1  2  2  0
  2  3  1  0
  4  3  1  6
  4  5  1  0
  5  6  1  0
  6  7  1  0
  7  8  1  0
  8  9  1  0
  9 10  1  6
 10 11  1  0
  2 12  1  0
  9  4  1  0
M  END
>  <id>  (100) 
7b9be750-211f-43e3-8cfd-6aa2721330ab

>  <Version>  (100) 
0

>  <Alias>  (100) 
(1S,2S)CyHexAcA

>  <Type>  (100) 
amino_acid

>  <Smiles>  (100) 
O=C(C[C@@H]1CCCC[C@@H]1N[*:1])[*:2]

>  <ProtectedSmiles>  (100) 
O=C(O)C[C@@H]1CCCC[C@@H]1NC(=O)OCC1c2ccccc2-c2ccccc21

>  <CAS>  (100) 
1934285-97-8

>  <User>  (100) 
Sevan.habeshian@orbismedicines.com

>  <StereoComment>  (100) 
as drawn

>  <Name>  (100) 
N/A

>  <Code>  (100) 
(1S,2S)CyHexAcA

>  <AliasLowerCase>  (100) 
(1s,2s)cyhexaca

>  <LatestVersion>  (100) 
0.0

>  <createdAt>  (100) 
2026-02-13T09:56:35.393Z

>  <updatedAt>  (100) 
2026-02-13T09:56:35.393Z

>  <NumRotatableBonds>  (100) 
3

>  <is_N_methyl>  (100) 
False

>  <is_a_methyl>  (100) 
False

>  <is_alpha_aa>  (100) 
False

>  <is_beta_aa>  (100) 
False

>  <is_S100_aa>  (100) 
False

>  <Murcko_SMILES>  (100) 
C1CCCCC1

$$$$

     RDKit          2D

 11 11  0  0  0  0  0  0  0  0999 V2000
    3.7500    1.2990    0.0000 O   0  0  0  0  0  0  0  0  0  0  0  0
    3.0000    0.0000    0.0000 C   0  0  0  0  0  0  0  0  0  0  0  0
    1.5000    0.0000    0.0000 C   0  0  0  0  0  0  0  0  0  0  0  0
    0.7500   -1.2990    0.0000 C   0  0  0  0  0  0  0  0  0  0  0  0
   -0.7500   -1.2990    0.0000 C   0  0  0  0  0  0  0  0  0  0  0  0
   -1.5000    0.0000    0.0000 C   0  0  0  0  0  0  0  0  0  0  0  0
   -0.7500    1.2990    0.0000 C   0  0  0  0  0  0  0  0  0  0  0  0
    0.7500    1.2990    0.0000 C   0  0  0  0  0  0  0  0  0  0  0  0
    1.5000    2.5981    0.0000 N   0  0  0  0  0  0  0  0  0  0  0  0
    0.7500    3.8971    0.0000 R   0  0  0  0  0  1  0  0  0  1  0  0
    3.7500   -1.2990    0.0000 R   0  0  0  0  0  1  0  0  0  2  0  0
  1  2  2  0
  3  2  1  6
  3  4  1  0
  4  5  1  0
  5  6  1  0
  6  7  1  0
  7  8  1  0
  8  9  1  6
  9 10  1  0
  2 11  1  0
  8  3  1  0
M  END
>  <id>  (101) 
eaf458a3-99a2-4553-83ad-ed7b8494c991

>  <Version>  (101) 
0

>  <Alias>  (101) 
(1R,2S)c1,2ACH

>  <Type>  (101) 
amino_acid

>  <Smiles>  (101) 
O=C([C@@H]1CCCC[C@@H]1N[*:1])[*:2]

>  <ProtectedSmiles>  (101) 
O=C(N[C@H]1CCCC[C@H]1C(=O)O)OCC1c2ccccc2-c2ccccc21

>  <CAS>  (101) 
312965-06-3

>  <User>  (101) 
angelica.l

>  <StereoComment>  (101) 
as drawn

>  <Name>  (101) 
(1R,2S)-Fmoc-2-aminocyclohexane carboxylic acid

>  <Code>  (101) 
(1R,2S)c1,2ACH

>  <AliasLowerCase>  (101) 
(1r,2s)c1,2ach

>  <LatestVersion>  (101) 
0.0

>  <createdAt>  (101) 
2026-01-14T11:32:44.056Z

>  <updatedAt>  (101) 
2026-01-14T11:32:44.056Z

>  <NumRotatableBonds>  (101) 
2

>  <is_N_methyl>  (101) 
False

>  <is_a_methyl>  (101) 
False

>  <is_alpha_aa>  (101) 
False

>  <is_beta_aa>  (101) 
True

>  <is_S100_aa>  (101) 
False

>  <Murcko_SMILES>  (101) 
C1CCCCC1

$$$$

     RDKit          2D

 12 11  0  0  0  0  0  0  0  0999 V2000
    7.7942   -1.5000    0.0000 O   0  0  0  0  0  0  0  0  0  0  0  0
    7.7942   -0.0000    0.0000 C   0  0  0  0  0  0  0  0  0  0  0  0
    9.0933    0.7500    0.0000 O   0  0  0  0  0  0  0  0  0  0  0  0
    6.4952    0.7500    0.0000 C   0  0  0  0  0  0  0  0  0  0  0  0
    5.1962   -0.0000    0.0000 C   0  0  0  0  0  0  0  0  0  0  0  0
    3.8971    0.7500    0.0000 C   0  0  0  0  0  0  0  0  0  0  0  0
    2.5981   -0.0000    0.0000 C   0  0  0  0  0  0  0  0  0  0  0  0
    1.2990    0.7500    0.0000 N   0  0  0  0  0  0  0  0  0  0  0  0
    0.0000    0.0000    0.0000 R   0  0  0  0  0  1  0  0  0  1  0  0
    2.5981   -1.5000    0.0000 C   0  0  0  0  0  0  0  0  0  0  0  0
    1.2990   -2.2500    0.0000 O   0  0  0  0  0  0  0  0  0  0  0  0
    3.8971   -2.2500    0.0000 R   0  0  0  0  0  1  0  0  0  2  0  0
  1  2  2  0
  2  3  1  0
  2  4  1  0
  4  5  1  0
  5  6  1  0
  7  6  1  1
  7  8  1  0
  8  9  1  0
  7 10  1  0
 10 11  2  0
 10 12  1  0
M  END
>  <id>  (102) 
46048938-786d-4a1c-a4a1-b3193db6ecd5

>  <Version>  (102) 
0

>  <Alias>  (102) 
hGlu

>  <Type>  (102) 
amino_acid

>  <Smiles>  (102) 
O=C(O)CCC[C@H](N[*:1])C(=O)[*:2]

>  <ProtectedSmiles>  (102) 
CC(C)(C)OC(=O)CCC[C@H](NC(=O)OCC1c2ccccc2-c2ccccc21)C(=O)O

>  <CAS>  (102) 
159751-47-0

>  <User>  (102) 
sevan.h

>  <StereoComment>  (102) 
as drawn

>  <Name>  (102) 
Fmoc-homo-Glu(OtBu)-OH

>  <Code>  (102) 
hGlu

>  <AliasLowerCase>  (102) 
hglu

>  <LatestVersion>  (102) 
0.0

>  <createdAt>  (102) 
2026-01-14T11:38:05.717Z

>  <updatedAt>  (102) 
2026-01-14T11:38:05.717Z

>  <NumRotatableBonds>  (102) 
6

>  <is_N_methyl>  (102) 
False

>  <is_a_methyl>  (102) 
False

>  <is_alpha_aa>  (102) 
True

>  <is_beta_aa>  (102) 
False

>  <is_S100_aa>  (102) 
False

>  <Murcko_SMILES>  (102) 


$$$$

     RDKit          2D

 13 13  0  0  0  0  0  0  0  0999 V2000
    6.0000    0.0000    0.0000 O   0  0  0  0  0  0  0  0  0  0  0  0
    5.2500   -1.2990    0.0000 C   0  0  0  0  0  0  0  0  0  0  0  0
    3.7500   -1.2990    0.0000 C   0  0  0  0  0  0  0  0  0  0  0  0
    3.0000    0.0000    0.0000 C   0  0  0  0  0  0  0  0  0  0  0  0
    1.5000    0.0000    0.0000 C   0  0  0  0  0  0  0  0  0  0  0  0
    0.7500   -1.2990    0.0000 C   0  0  0  0  0  0  0  0  0  0  0  0
   -0.7500   -1.2990    0.0000 N   0  0  0  0  0  0  0  0  0  0  0  0
   -1.5000    0.0000    0.0000 C   0  0  0  0  0  0  0  0  0  0  0  0
   -0.7500    1.2990    0.0000 C   0  0  0  0  0  0  0  0  0  0  0  0
    0.7500    1.2990    0.0000 N   0  0  0  0  0  0  0  0  0  0  0  0
    3.0000   -2.5981    0.0000 N   0  0  0  0  0  0  0  0  0  0  0  0
    3.7500   -3.8971    0.0000 R   0  0  0  0  0  1  0  0  0  1  0  0
    6.0000   -2.5981    0.0000 R   0  0  0  0  0  1  0  0  0  2  0  0
  1  2  2  0
  2  3  1  0
  3  4  1  0
  4  5  1  0
  5  6  2  0
  6  7  1  0
  7  8  2  0
  8  9  1  0
  9 10  2  0
  3 11  1  0
 11 12  1  0
  2 13  1  0
 10  5  1  0
M  END
>  <id>  (103) 
ee3b8a28-bcc3-4b4b-bb14-0b04f6030216

>  <Version>  (103) 
0

>  <Alias>  (103) 
racPyrazinylAla

>  <Type>  (103) 
amino_acid

>  <Smiles>  (103) 
O=C(C(Cc1cnccn1)N[*:1])[*:2]

>  <ProtectedSmiles>  (103) 
O=C(NC(Cc1cnccn1)C(=O)O)OCC1c2ccccc2-c2ccccc21

>  <CAS>  (103) 
1694245-15-2

>  <User>  (103) 
Sevan.habeshian@orbismedicines.com

>  <StereoComment>  (103) 
as drawn

>  <Name>  (103) 
N/A

>  <Code>  (103) 
racPyrazinylAla

>  <AliasLowerCase>  (103) 
racpyrazinylala

>  <LatestVersion>  (103) 
0.0

>  <createdAt>  (103) 
2026-02-13T09:56:35.513Z

>  <updatedAt>  (103) 
2026-02-13T09:56:35.513Z

>  <NumRotatableBonds>  (103) 
4

>  <is_N_methyl>  (103) 
False

>  <is_a_methyl>  (103) 
False

>  <is_alpha_aa>  (103) 
True

>  <is_beta_aa>  (103) 
False

>  <is_S100_aa>  (103) 
False

>  <Murcko_SMILES>  (103) 
c1cnccn1

$$$$

     RDKit          2D

 15 15  0  0  0  0  0  0  0  0999 V2000
    6.0000    0.0000    0.0000 O   0  0  0  0  0  0  0  0  0  0  0  0
    5.2500   -1.2990    0.0000 C   0  0  0  0  0  0  0  0  0  0  0  0
    3.7500   -1.2990    0.0000 C   0  0  0  0  0  0  0  0  0  0  0  0
    3.0000    0.0000    0.0000 C   0  0  0  0  0  0  0  0  0  0  0  0
    3.7500    1.2990    0.0000 N   0  0  0  0  0  0  0  0  0  0  0  0
    5.2500    1.2990    0.0000 R   0  0  0  0  0  1  0  0  0  1  0  0
    1.5000    0.0000    0.0000 C   0  0  0  0  0  0  0  0  0  0  0  0
    0.7500   -1.2990    0.0000 C   0  0  0  0  0  0  0  0  0  0  0  0
   -0.7500   -1.2990    0.0000 C   0  0  0  0  0  0  0  0  0  0  0  0
   -1.5000    0.0000    0.0000 C   0  0  0  0  0  0  0  0  0  0  0  0
   -3.0000    0.0000    0.0000 F   0  0  0  0  0  0  0  0  0  0  0  0
   -0.7500    1.2990    0.0000 C   0  0  0  0  0  0  0  0  0  0  0  0
    0.7500    1.2990    0.0000 C   0  0  0  0  0  0  0  0  0  0  0  0
    1.5000    2.5981    0.0000 F   0  0  0  0  0  0  0  0  0  0  0  0
    6.0000   -2.5981    0.0000 R   0  0  0  0  0  1  0  0  0  2  0  0
  1  2  2  0
  2  3  1  0
  3  4  1  0
  4  5  1  0
  5  6  1  0
  4  7  1  0
  7  8  2  0
  8  9  1  0
  9 10  2  0
 10 11  1  0
 10 12  1  0
 12 13  2  0
 13 14  1  0
  2 15  1  0
 13  7  1  0
M  END
>  <id>  (104) 
09f4ec6b-26f7-428a-a92e-0c191573e6a3

>  <Version>  (104) 
0

>  <Alias>  (104) 
rac-3-(2,4FPh)PA

>  <Type>  (104) 
amino_acid

>  <Smiles>  (104) 
O=C(CC(N[*:1])c1ccc(F)cc1F)[*:2]

>  <ProtectedSmiles>  (104) 
O=C(O)CC(NC(=O)OCC1c2ccccc2-c2ccccc21)c1ccc(F)cc1F

>  <CAS>  (104) 
1367449-16-8

>  <User>  (104) 
angelica.l

>  <StereoComment>  (104) 
as drawn

>  <Name>  (104) 
3-(2,4-difluorophenyl)-3-({[(9H-fluoren-9-yl)methoxy]carbonyl}amino)propanoic acid

>  <Code>  (104) 
rac-3-(2,4FPh)PA

>  <AliasLowerCase>  (104) 
rac-3-(2,4fph)pa

>  <LatestVersion>  (104) 
0.0

>  <createdAt>  (104) 
2026-01-14T11:36:10.584Z

>  <updatedAt>  (104) 
2026-01-14T11:36:10.584Z

>  <NumRotatableBonds>  (104) 
4

>  <is_N_methyl>  (104) 
False

>  <is_a_methyl>  (104) 
False

>  <is_alpha_aa>  (104) 
False

>  <is_beta_aa>  (104) 
True

>  <is_S100_aa>  (104) 
False

>  <Murcko_SMILES>  (104) 
c1ccccc1

$$$$

     RDKit          2D

  9  9  0  0  0  0  0  0  0  0999 V2000
    2.3660   -2.5981    0.0000 O   0  0  0  0  0  0  0  0  0  0  0  0
    3.1160   -1.2990    0.0000 C   0  0  0  0  0  0  0  0  0  0  0  0
    2.3660    0.0000    0.0000 C   0  0  0  0  0  0  0  0  0  0  0  0
    3.1160    1.2990    0.0000 N   0  0  0  0  0  0  0  0  0  0  0  0
    4.6160    1.2990    0.0000 R   0  0  0  0  0  1  0  0  0  1  0  0
    0.8660    0.0000    0.0000 C   0  0  0  0  0  0  0  0  0  0  0  0
   -0.4330    0.7500    0.0000 C   0  0  0  0  0  0  0  0  0  0  0  0
   -0.4330   -0.7500    0.0000 C   0  0  0  0  0  0  0  0  0  0  0  0
    4.6160   -1.2990    0.0000 R   0  0  0  0  0  1  0  0  0  2  0  0
  1  2  2  0
  2  3  1  0
  3  4  1  1
  4  5  1  0
  3  6  1  0
  6  7  1  0
  7  8  1  0
  2  9  1  0
  8  6  1  0
M  END
>  <id>  (105) 
9f55a7c7-319a-4fcf-9b2f-4de3a61e4e90

>  <Version>  (105) 
0

>  <Alias>  (105) 
D-cPropGly

>  <Type>  (105) 
amino_acid

>  <Smiles>  (105) 
O=C([C@H](N[*:1])C1CC1)[*:2]

>  <ProtectedSmiles>  (105) 
O=C(N[C@@H](C(=O)O)C1CC1)OCC1c2ccccc2-c2ccccc21

>  <CAS>  (105) 
923012-40-2

>  <User>  (105) 
sevan.h

>  <StereoComment>  (105) 
as drawn

>  <Name>  (105) 
Fmoc-D-cPrGly-OH

>  <Code>  (105) 
D-cPropGly

>  <AliasLowerCase>  (105) 
d-cpropgly

>  <LatestVersion>  (105) 
0.0

>  <createdAt>  (105) 
2026-01-14T12:15:09.275Z

>  <updatedAt>  (105) 
2026-01-14T12:15:09.275Z

>  <NumRotatableBonds>  (105) 
3

>  <is_N_methyl>  (105) 
False

>  <is_a_methyl>  (105) 
False

>  <is_alpha_aa>  (105) 
True

>  <is_beta_aa>  (105) 
False

>  <is_S100_aa>  (105) 
False

>  <Murcko_SMILES>  (105) 
C1CC1

$$$$

     RDKit          2D

 12 12  0  0  0  0  0  0  0  0999 V2000
    5.7760    0.0000    0.0000 O   0  0  0  0  0  0  0  0  0  0  0  0
    5.0260   -1.2990    0.0000 C   0  0  0  0  0  0  0  0  0  0  0  0
    3.5260   -1.2990    0.0000 C   0  0  0  0  0  0  0  0  0  0  0  0
    2.7760    0.0000    0.0000 C   0  0  0  0  0  0  0  0  0  0  0  0
    1.2760    0.0000    0.0000 C   0  0  0  0  0  0  0  0  0  0  0  0
    0.3943    1.2135    0.0000 C   0  0  0  0  0  0  0  0  0  0  0  0
   -1.0323    0.7500    0.0000 S   0  0  0  0  0  0  0  0  0  0  0  0
   -1.0323   -0.7500    0.0000 C   0  0  0  0  0  0  0  0  0  0  0  0
    0.3943   -1.2135    0.0000 N   0  0  0  0  0  0  0  0  0  0  0  0
    2.7760   -2.5981    0.0000 N   0  0  0  0  0  0  0  0  0  0  0  0
    3.5260   -3.8971    0.0000 R   0  0  0  0  0  1  0  0  0  1  0  0
    5.7760   -2.5981    0.0000 R   0  0  0  0  0  1  0  0  0  2  0  0
  1  2  2  0
  2  3  1  0
  3  4  1  1
  4  5  1  0
  5  6  2  0
  6  7  1  0
  7  8  1  0
  8  9  2  0
  3 10  1  0
 10 11  1  0
  2 12  1  0
  9  5  1  0
M  END
>  <id>  (106) 
f36acaf2-226f-470a-b34a-acb36a4ec31e

>  <Version>  (106) 
0

>  <Alias>  (106) 
Tza

>  <Type>  (106) 
amino_acid

>  <Smiles>  (106) 
O=C([C@H](Cc1cscn1)N[*:1])[*:2]

>  <ProtectedSmiles>  (106) 
O=C(N[C@@H](Cc1cscn1)C(=O)O)OCC1c2ccccc2-c2ccccc21

>  <CAS>  (106) 
205528-32-1

>  <User>  (106) 
sevan.h

>  <StereoComment>  (106) 
as drawn

>  <Name>  (106) 
Fmoc-l-4-thiazolylalanine

>  <Code>  (106) 
Tza

>  <AliasLowerCase>  (106) 
tza

>  <LatestVersion>  (106) 
0.0

>  <createdAt>  (106) 
2026-01-14T12:15:44.106Z

>  <updatedAt>  (106) 
2026-01-14T12:15:44.106Z

>  <NumRotatableBonds>  (106) 
4

>  <is_N_methyl>  (106) 
False

>  <is_a_methyl>  (106) 
False

>  <is_alpha_aa>  (106) 
True

>  <is_beta_aa>  (106) 
False

>  <is_S100_aa>  (106) 
False

>  <Murcko_SMILES>  (106) 
c1cscn1

$$$$

     RDKit          2D

 12 13  0  0  0  0  0  0  0  0999 V2000
   -2.9520   -0.0116    0.0000 O   0  0  0  0  0  0  0  0  0  0  0  0
   -2.6401   -1.4788    0.0000 C   0  0  0  0  0  0  0  0  0  0  0  0
   -1.2135   -1.9423    0.0000 C   0  0  0  0  0  0  0  0  0  0  0  0
   -0.7500   -3.3689    0.0000 C   0  0  0  0  0  0  0  0  0  0  0  0
    0.7500   -3.3689    0.0000 N   0  0  0  0  0  0  0  0  0  0  0  0
    1.6317   -4.5824    0.0000 R   0  0  0  0  0  1  0  0  0  1  0  0
    1.2135   -1.9423    0.0000 C   0  0  0  0  0  0  0  0  0  0  0  0
   -0.0000   -1.0607    0.0000 C   0  0  0  0  0  0  0  0  0  0  0  0
    1.0607    0.0000    0.0000 C   0  0  0  0  0  0  0  0  0  0  0  0
    0.0000    1.0607    0.0000 O   0  0  0  0  0  0  0  0  0  0  0  0
   -1.0607    0.0000    0.0000 C   0  0  0  0  0  0  0  0  0  0  0  0
   -3.7548   -2.4825    0.0000 R   0  0  0  0  0  1  0  0  0  2  0  0
  1  2  2  0
  2  3  1  0
  3  4  1  0
  4  5  1  0
  5  6  1  0
  5  7  1  0
  7  8  1  0
  8  9  1  0
  9 10  1  0
 10 11  1  0
  2 12  1  0
  8  3  1  0
 11  8  1  0
M  END
>  <id>  (107) 
641d4cf7-93b7-442c-8ba9-f61fa2f34e66

>  <Version>  (107) 
0

>  <Alias>  (107) 
OxytanylPyrr

>  <Type>  (107) 
amino_acid

>  <Smiles>  (107) 
O=C(C1CN([*:1])CC12COC2)[*:2]

>  <ProtectedSmiles>  (107) 
O=C(O)C1CN(C(=O)OCC2c3ccccc3-c3ccccc32)CC12COC2

>  <CAS>  (107) 
2137787-94-9

>  <User>  (107) 
Sevan.habeshian@orbismedicines.com

>  <StereoComment>  (107) 
as drawn

>  <Name>  (107) 
N/A

>  <Code>  (107) 
OxytanylPyrr

>  <AliasLowerCase>  (107) 
oxytanylpyrr

>  <LatestVersion>  (107) 
0.0

>  <createdAt>  (107) 
2026-02-13T09:56:36.340Z

>  <updatedAt>  (107) 
2026-02-13T09:56:36.340Z

>  <NumRotatableBonds>  (107) 
1

>  <is_N_methyl>  (107) 
False

>  <is_a_methyl>  (107) 
False

>  <is_alpha_aa>  (107) 
False

>  <is_beta_aa>  (107) 
True

>  <is_S100_aa>  (107) 
False

>  <Murcko_SMILES>  (107) 
C1CC2(CN1)COC2

$$$$

     RDKit          2D

 14 14  0  0  0  0  0  0  0  0999 V2000
    5.2500   -3.8971    0.0000 O   0  0  0  0  0  0  0  0  0  0  0  0
    6.0000   -2.5981    0.0000 C   0  0  0  0  0  0  0  0  0  0  0  0
    5.2500   -1.2990    0.0000 C   0  0  0  0  0  0  0  0  0  0  0  0
    3.7500   -1.2990    0.0000 C   0  0  0  0  0  0  0  0  0  0  0  0
    3.0000    0.0000    0.0000 C   0  0  0  0  0  0  0  0  0  0  0  0
    1.5000    0.0000    0.0000 C   0  0  0  0  0  0  0  0  0  0  0  0
    0.7500   -1.2990    0.0000 C   0  0  0  0  0  0  0  0  0  0  0  0
   -0.7500   -1.2990    0.0000 C   0  0  0  0  0  0  0  0  0  0  0  0
   -1.5000    0.0000    0.0000 C   0  0  0  0  0  0  0  0  0  0  0  0
   -0.7500    1.2990    0.0000 C   0  0  0  0  0  0  0  0  0  0  0  0
    0.7500    1.2990    0.0000 C   0  0  0  0  0  0  0  0  0  0  0  0
    3.0000   -2.5981    0.0000 N   0  0  0  0  0  0  0  0  0  0  0  0
    3.7500   -3.8971    0.0000 R   0  0  0  0  0  1  0  0  0  1  0  0
    7.5000   -2.5981    0.0000 R   0  0  0  0  0  1  0  0  0  2  0  0
  1  2  2  0
  2  3  1  0
  4  3  1  6
  4  5  1  0
  5  6  1  0
  6  7  2  0
  7  8  1  0
  8  9  2  0
  9 10  1  0
 10 11  2  0
  4 12  1  0
 12 13  1  0
  2 14  1  0
 11  6  1  0
M  END
>  <id>  (108) 
a5185959-a3db-4b0d-9574-e06b0a861d38

>  <Version>  (108) 
0

>  <Alias>  (108) 
D-B-hPhe

>  <Type>  (108) 
amino_acid

>  <Smiles>  (108) 
O=C(C[C@@H](Cc1ccccc1)N[*:1])[*:2]

>  <ProtectedSmiles>  (108) 
O=C(O)C[C@@H](Cc1ccccc1)NC(=O)OCC1c2ccccc2-c2ccccc21

>  <CAS>  (108) 
209252-16-4

>  <User>  (108) 
sevan.h

>  <StereoComment>  (108) 
as drawn

>  <Name>  (108) 
Fmoc-d-beta-homophenylalanine

>  <Code>  (108) 
D-B-hPhe

>  <AliasLowerCase>  (108) 
d-b-hphe

>  <LatestVersion>  (108) 
0.0

>  <createdAt>  (108) 
2026-01-14T12:15:37.900Z

>  <updatedAt>  (108) 
2026-01-14T12:15:37.900Z

>  <NumRotatableBonds>  (108) 
5

>  <is_N_methyl>  (108) 
False

>  <is_a_methyl>  (108) 
False

>  <is_alpha_aa>  (108) 
False

>  <is_beta_aa>  (108) 
True

>  <is_S100_aa>  (108) 
False

>  <Murcko_SMILES>  (108) 
c1ccccc1

$$$$

     RDKit          2D

 14 15  0  0  0  0  0  0  0  0999 V2000
   -2.9520   -0.0116    0.0000 O   0  0  0  0  0  0  0  0  0  0  0  0
   -2.6401   -1.4788    0.0000 C   0  0  0  0  0  0  0  0  0  0  0  0
   -1.2135   -1.9423    0.0000 C   0  0  0  0  0  0  0  0  0  0  0  0
   -0.7500   -3.3689    0.0000 C   0  0  0  0  0  0  0  0  0  0  0  0
    0.7500   -3.3689    0.0000 S   0  0  0  0  0  0  0  0  0  0  0  0
    2.2172   -3.6808    0.0000 O   0  0  0  0  0  0  0  0  0  0  0  0
    0.5932   -4.8607    0.0000 O   0  0  0  0  0  0  0  0  0  0  0  0
    1.2135   -1.9423    0.0000 C   0  0  0  0  0  0  0  0  0  0  0  0
   -0.0000   -1.0607    0.0000 C   0  0  0  0  0  0  0  0  0  0  0  0
    1.0607    0.0000    0.0000 C   0  0  0  0  0  0  0  0  0  0  0  0
    0.0000    1.0607    0.0000 N   0  0  0  0  0  0  0  0  0  0  0  0
    0.0000    2.5607    0.0000 R   0  0  0  0  0  1  0  0  0  1  0  0
   -1.0607    0.0000    0.0000 C   0  0  0  0  0  0  0  0  0  0  0  0
   -3.7548   -2.4825    0.0000 R   0  0  0  0  0  1  0  0  0  2  0  0
  1  2  2  0
  2  3  1  0
  3  4  1  0
  4  5  1  0
  5  6  2  0
  5  7  2  0
  5  8  1  0
  8  9  1  0
  9 10  1  0
 10 11  1  0
 11 12  1  0
 11 13  1  0
  2 14  1  0
  9  3  1  0
 13  9  1  0
M  END
>  <id>  (109) 
0f924a40-5ed5-4baa-a6f1-a22bb53e8fb5

>  <Version>  (109) 
0

>  <Alias>  (109) 
DOxoSpiroCA

>  <Type>  (109) 
amino_acid

>  <Smiles>  (109) 
O=C(C1CS(=O)(=O)CC12CN([*:1])C2)[*:2]

>  <ProtectedSmiles>  (109) 
O=C(O)C1CS(=O)(=O)CC12CN(C(=O)OCC1c3ccccc3-c3ccccc31)C2

>  <CAS>  (109) 
2138194-65-5

>  <User>  (109) 
Sevan.habeshian@orbismedicines.com

>  <StereoComment>  (109) 
as drawn

>  <Name>  (109) 
N/A

>  <Code>  (109) 
DOxoSpiroCA

>  <AliasLowerCase>  (109) 
doxospiroca

>  <LatestVersion>  (109) 
0.0

>  <createdAt>  (109) 
2026-02-13T09:56:36.256Z

>  <updatedAt>  (109) 
2026-02-13T09:56:36.256Z

>  <NumRotatableBonds>  (109) 
1

>  <is_N_methyl>  (109) 
False

>  <is_a_methyl>  (109) 
False

>  <is_alpha_aa>  (109) 
False

>  <is_beta_aa>  (109) 
False

>  <is_S100_aa>  (109) 
False

>  <Murcko_SMILES>  (109) 
O=S1(=O)CCC2(CNC2)C1

$$$$

     RDKit          2D

 16 17  0  0  0  0  0  0  0  0999 V2000
   -2.3310   -1.8665    0.0000 O   0  0  0  0  0  0  0  0  0  0  0  0
   -1.3273   -2.9812    0.0000 C   0  0  0  0  0  0  0  0  0  0  0  0
    0.1399   -2.6694    0.0000 C   0  0  0  0  0  0  0  0  0  0  0  0
    1.2546   -3.6731    0.0000 C   0  0  0  0  0  0  0  0  0  0  0  0
    2.5537   -2.9231    0.0000 N   0  0  0  0  0  0  0  0  0  0  0  0
    3.9240   -3.5332    0.0000 R   0  0  0  0  0  1  0  0  0  1  0  0
    2.2418   -1.4558    0.0000 C   0  0  0  0  0  0  0  0  0  0  0  0
    0.7500   -1.2990    0.0000 C   0  0  0  0  0  0  0  0  0  0  0  0
    1.5000    0.0000    0.0000 C   0  0  0  0  0  0  0  0  0  0  0  0
    0.7500    1.2990    0.0000 C   0  0  0  0  0  0  0  0  0  0  0  0
   -0.7500    1.2990    0.0000 S   0  0  0  0  0  0  0  0  0  0  0  0
   -2.1595    1.8121    0.0000 O   0  0  0  0  0  0  0  0  0  0  0  0
   -0.4895    2.7762    0.0000 O   0  0  0  0  0  0  0  0  0  0  0  0
   -1.5000    0.0000    0.0000 C   0  0  0  0  0  0  0  0  0  0  0  0
   -0.7500   -1.2990    0.0000 C   0  0  0  0  0  0  0  0  0  0  0  0
   -1.7909   -4.4078    0.0000 R   0  0  0  0  0  1  0  0  0  2  0  0
  1  2  2  0
  2  3  1  0
  3  4  1  0
  4  5  1  0
  5  6  1  0
  5  7  1  0
  7  8  1  0
  8  9  1  0
  9 10  1  0
 10 11  1  0
 11 12  2  0
 11 13  2  0
 11 14  1  0
 14 15  1  0
  2 16  1  0
  8  3  1  0
 15  8  1  0
M  END
>  <id>  (110) 
9443e18f-6e07-4a1b-b984-07edbd89731f

>  <Version>  (110) 
0

>  <Alias>  (110) 
DioxoSpiroDecCA

>  <Type>  (110) 
amino_acid

>  <Smiles>  (110) 
O=C(C1CN([*:1])CC12CCS(=O)(=O)CC2)[*:2]

>  <ProtectedSmiles>  (110) 
O=C(O)C1CN(C(=O)OCC2c3ccccc3-c3ccccc32)CC12CCS(=O)(=O)CC2

>  <CAS>  (110) 
1823835-45-5

>  <User>  (110) 
Sevan.habeshian@orbismedicines.com

>  <StereoComment>  (110) 
as drawn

>  <Name>  (110) 
N/A

>  <Code>  (110) 
DioxoSpiroDecCA

>  <AliasLowerCase>  (110) 
dioxospirodecca

>  <LatestVersion>  (110) 
0.0

>  <createdAt>  (110) 
2026-02-13T09:56:35.514Z

>  <updatedAt>  (110) 
2026-02-13T09:56:35.514Z

>  <NumRotatableBonds>  (110) 
1

>  <is_N_methyl>  (110) 
False

>  <is_a_methyl>  (110) 
False

>  <is_alpha_aa>  (110) 
False

>  <is_beta_aa>  (110) 
True

>  <is_S100_aa>  (110) 
False

>  <Murcko_SMILES>  (110) 
O=S1(=O)CCC2(CCNC2)CC1

$$$$

     RDKit          2D

 13 13  0  0  0  0  0  0  0  0999 V2000
    3.0000   -2.5981    0.0000 O   0  0  0  0  0  0  0  0  0  0  0  0
    3.7500   -1.2990    0.0000 C   0  0  0  0  0  0  0  0  0  0  0  0
    3.0000    0.0000    0.0000 C   0  0  0  0  0  0  0  0  0  0  0  0
    3.7500    1.2990    0.0000 N   0  0  0  0  0  0  0  0  0  0  0  0
    5.2500    1.2990    0.0000 R   0  0  0  0  0  1  0  0  0  1  0  0
    1.5000    0.0000    0.0000 C   0  0  0  0  0  0  0  0  0  0  0  0
    0.7500   -1.2990    0.0000 C   0  0  0  0  0  0  0  0  0  0  0  0
   -0.7500   -1.2990    0.0000 C   0  0  0  0  0  0  0  0  0  0  0  0
   -1.5000    0.0000    0.0000 C   0  0  0  0  0  0  0  0  0  0  0  0
   -3.0000    0.0000    0.0000 Cl  0  0  0  0  0  0  0  0  0  0  0  0
   -0.7500    1.2990    0.0000 C   0  0  0  0  0  0  0  0  0  0  0  0
    0.7500    1.2990    0.0000 C   0  0  0  0  0  0  0  0  0  0  0  0
    5.2500   -1.2990    0.0000 R   0  0  0  0  0  1  0  0  0  2  0  0
  1  2  2  0
  2  3  1  0
  3  4  1  6
  4  5  1  0
  3  6  1  0
  6  7  2  0
  7  8  1  0
  8  9  2  0
  9 10  1  0
  9 11  1  0
 11 12  2  0
  2 13  1  0
 12  6  1  0
M  END
>  <id>  (111) 
cf3f9a35-7707-4a4e-aa00-3d7759226894

>  <Version>  (111) 
0

>  <Alias>  (111) 
Phg(4Cl)

>  <Type>  (111) 
amino_acid

>  <Smiles>  (111) 
O=C([C@@H](N[*:1])c1ccc(Cl)cc1)[*:2]

>  <ProtectedSmiles>  (111) 
O=C(N[C@H](C(=O)O)c1ccc(Cl)cc1)OCC1c2ccccc2-c2ccccc21

>  <CAS>  (111) 
1260590-28-0

>  <User>  (111) 
mischa.s

>  <StereoComment>  (111) 
as drawn

>  <Name>  (111) 
(S)-2-((((9H-fluoren-9-yl)methoxy)carbonyl)amino)-2-(4-chlorophenyl)acetic acid

>  <Code>  (111) 
Phg(4Cl)

>  <AliasLowerCase>  (111) 
phg(4cl)

>  <LatestVersion>  (111) 
0.0

>  <createdAt>  (111) 
2026-01-14T11:34:56.222Z

>  <updatedAt>  (111) 
2026-01-14T11:34:56.222Z

>  <NumRotatableBonds>  (111) 
3

>  <is_N_methyl>  (111) 
False

>  <is_a_methyl>  (111) 
False

>  <is_alpha_aa>  (111) 
True

>  <is_beta_aa>  (111) 
False

>  <is_S100_aa>  (111) 
False

>  <Murcko_SMILES>  (111) 
c1ccccc1

$$$$

     RDKit          2D

 16 17  0  0  0  0  0  0  0  0999 V2000
   -5.4933   -4.1162    0.0000 O   0  0  0  0  0  0  0  0  0  0  0  0
   -4.3786   -5.1199    0.0000 C   0  0  0  0  0  0  0  0  0  0  0  0
   -2.9520   -4.6564    0.0000 C   0  0  0  0  0  0  0  0  0  0  0  0
   -2.6401   -3.1891    0.0000 C   0  0  0  0  0  0  0  0  0  0  0  0
   -1.2135   -2.7256    0.0000 C   0  0  0  0  0  0  0  0  0  0  0  0
   -0.0000   -3.6073    0.0000 C   0  0  0  0  0  0  0  0  0  0  0  0
    1.2135   -2.7256    0.0000 N   0  0  0  0  0  0  0  0  0  0  0  0
    0.7500   -1.2990    0.0000 C   0  0  0  0  0  0  0  0  0  0  0  0
    1.5000    0.0000    0.0000 C   0  0  0  0  0  0  0  0  0  0  0  0
    0.7500    1.2990    0.0000 C   0  0  0  0  0  0  0  0  0  0  0  0
   -0.7500    1.2990    0.0000 C   0  0  0  0  0  0  0  0  0  0  0  0
   -1.5000    0.0000    0.0000 C   0  0  0  0  0  0  0  0  0  0  0  0
   -0.7500   -1.2990    0.0000 C   0  0  0  0  0  0  0  0  0  0  0  0
   -1.8373   -5.6601    0.0000 N   0  0  0  0  0  0  0  0  0  0  0  0
   -2.1491   -7.1273    0.0000 R   0  0  0  0  0  1  0  0  0  1  0  0
   -4.6904   -6.5871    0.0000 R   0  0  0  0  0  1  0  0  0  2  0  0
  1  2  2  0
  2  3  1  0
  3  4  1  6
  4  5  1  0
  5  6  2  0
  6  7  1  0
  7  8  1  0
  8  9  2  0
  9 10  1  0
 10 11  2  0
 11 12  1  0
 12 13  2  0
  3 14  1  0
 14 15  1  0
  2 16  1  0
 13  5  1  0
 13  8  1  0
M  END
>  <id>  (112) 
8d6b3ef3-4621-4f9f-b468-3fe2d4be1fee

>  <Version>  (112) 
0

>  <Alias>  (112) 
TrpBoc

>  <Type>  (112) 
amino_acid

>  <Smiles>  (112) 
O=C([C@H](Cc1c[nH]c2ccccc12)N[*:1])[*:2]

>  <ProtectedSmiles>  (112) 
CC(C)(C)OC(=O)n1cc(C[C@H](NC(=O)OCC2c3ccccc3-c3ccccc32)C(=O)O)c2ccccc21

>  <CAS>  (112) 
143824-78-6

>  <User>  (112) 
sevan.h

>  <StereoComment>  (112) 
as drawn

>  <Name>  (112) 
Fmoc-Trp(Boc)-OH

>  <Code>  (112) 
TrpBoc

>  <AliasLowerCase>  (112) 
trpboc

>  <LatestVersion>  (112) 
0.0

>  <createdAt>  (112) 
2026-01-14T12:17:22.810Z

>  <updatedAt>  (112) 
2026-01-14T12:17:22.810Z

>  <NumRotatableBonds>  (112) 
4

>  <is_N_methyl>  (112) 
False

>  <is_a_methyl>  (112) 
False

>  <is_alpha_aa>  (112) 
True

>  <is_beta_aa>  (112) 
False

>  <is_S100_aa>  (112) 
False

>  <Murcko_SMILES>  (112) 
c1ccc2[nH]ccc2c1

$$$$

     RDKit          2D

 17 17  0  0  0  0  0  0  0  0999 V2000
    3.7500   -1.2990    0.0000 C   0  0  0  0  0  0  0  0  0  0  0  0
    3.0000    0.0000    0.0000 O   0  0  0  0  0  0  0  0  0  0  0  0
    1.5000    0.0000    0.0000 C   0  0  0  0  0  0  0  0  0  0  0  0
    0.7500   -1.2990    0.0000 C   0  0  0  0  0  0  0  0  0  0  0  0
   -0.7500   -1.2990    0.0000 C   0  0  0  0  0  0  0  0  0  0  0  0
   -1.5000   -2.5981    0.0000 C   0  0  0  0  0  0  0  0  0  0  0  0
   -3.0000   -2.5981    0.0000 C   0  0  0  0  0  0  0  0  0  0  0  0
   -3.7500   -1.2990    0.0000 N   0  0  0  0  0  0  0  0  0  0  0  0
   -5.2500   -1.2990    0.0000 R   0  0  0  0  0  1  0  0  0  1  0  0
   -3.7500   -3.8971    0.0000 C   0  0  0  0  0  0  0  0  0  0  0  0
   -3.0000   -5.1962    0.0000 O   0  0  0  0  0  0  0  0  0  0  0  0
   -5.2500   -3.8971    0.0000 R   0  0  0  0  0  1  0  0  0  2  0  0
   -1.5000    0.0000    0.0000 C   0  0  0  0  0  0  0  0  0  0  0  0
   -0.7500    1.2990    0.0000 C   0  0  0  0  0  0  0  0  0  0  0  0
   -1.5000    2.5981    0.0000 O   0  0  0  0  0  0  0  0  0  0  0  0
   -0.7500    3.8971    0.0000 C   0  0  0  0  0  0  0  0  0  0  0  0
    0.7500    1.2990    0.0000 C   0  0  0  0  0  0  0  0  0  0  0  0
  1  2  1  0
  2  3  1  0
  3  4  2  0
  4  5  1  0
  5  6  1  0
  6  7  1  0
  7  8  1  0
  8  9  1  0
  7 10  1  0
 10 11  2  0
 10 12  1  0
  5 13  2  0
 13 14  1  0
 14 15  1  0
 15 16  1  0
 14 17  2  0
 17  3  1  0
M  END
>  <id>  (113) 
8e309dde-8d4c-43a6-86e9-3ddce98619f6

>  <Version>  (113) 
0

>  <Alias>  (113) 
rac-(3,5diOMe)Phe

>  <Type>  (113) 
amino_acid

>  <Smiles>  (113) 
COc1cc(CC(N[*:1])C(=O)[*:2])cc(OC)c1

>  <ProtectedSmiles>  (113) 
COc1cc(CC(NC(=O)OCC2c3ccccc3-c3ccccc32)C(=O)O)cc(OC)c1

>  <CAS>  (113) 
1379834-21-5

>  <User>  (113) 
mischa.s

>  <StereoComment>  (113) 
as drawn

>  <Name>  (113) 
3-(3,5-dimethoxyphenyl)-2-({[(9H-fluoren-9-yl)methoxy]carbonyl}amino)propanoic acid

>  <Code>  (113) 
rac-(3,5diOMe)Phe

>  <AliasLowerCase>  (113) 
rac-(3,5diome)phe

>  <LatestVersion>  (113) 
0.0

>  <createdAt>  (113) 
2026-01-14T11:33:02.105Z

>  <updatedAt>  (113) 
2026-01-14T11:33:02.105Z

>  <NumRotatableBonds>  (113) 
6

>  <is_N_methyl>  (113) 
False

>  <is_a_methyl>  (113) 
False

>  <is_alpha_aa>  (113) 
True

>  <is_beta_aa>  (113) 
False

>  <is_S100_aa>  (113) 
False

>  <Murcko_SMILES>  (113) 
c1ccccc1

$$$$

     RDKit          2D

 15 16  0  0  0  0  0  0  0  0999 V2000
    3.7548   -2.1855    0.0000 O   0  0  0  0  0  0  0  0  0  0  0  0
    2.6401   -3.1891    0.0000 C   0  0  0  0  0  0  0  0  0  0  0  0
    1.2135   -2.7256    0.0000 C   0  0  0  0  0  0  0  0  0  0  0  0
    0.0000   -3.6073    0.0000 C   0  0  0  0  0  0  0  0  0  0  0  0
   -1.2135   -2.7256    0.0000 N   0  0  0  0  0  0  0  0  0  0  0  0
   -0.7500   -1.2990    0.0000 N   0  0  0  0  0  0  0  0  0  0  0  0
    0.7500   -1.2990    0.0000 C   0  0  0  0  0  0  0  0  0  0  0  0
    1.5000    0.0000    0.0000 C   0  0  0  0  0  0  0  0  0  0  0  0
    3.0000    0.0000    0.0000 C   0  0  0  0  0  0  0  0  0  0  0  0
    3.7500    1.2990    0.0000 N   0  0  0  0  0  0  0  0  0  0  0  0
    5.2500    1.2990    0.0000 R   0  0  0  0  0  1  0  0  0  1  0  0
    0.7500    1.2990    0.0000 C   0  0  0  0  0  0  0  0  0  0  0  0
   -0.7500    1.2990    0.0000 C   0  0  0  0  0  0  0  0  0  0  0  0
   -1.5000    0.0000    0.0000 C   0  0  0  0  0  0  0  0  0  0  0  0
    2.9520   -4.6564    0.0000 R   0  0  0  0  0  1  0  0  0  2  0  0
  1  2  2  0
  2  3  1  0
  3  4  1  0
  4  5  2  0
  5  6  1  0
  6  7  1  0
  7  8  1  0
  8  9  1  0
  9 10  1  0
 10 11  1  0
  8 12  1  0
 12 13  1  0
 13 14  1  0
  2 15  1  0
  7  3  2  0
 14  6  1  0
M  END
>  <id>  (114) 
2b42e4fc-dc69-499b-8d95-f0b29b07a5c6

>  <Version>  (114) 
0

>  <Alias>  (114) 
racPyr[1,5-A]PyrCA

>  <Type>  (114) 
amino_acid

>  <Smiles>  (114) 
O=C(c1cnn2c1C(CN[*:1])CCC2)[*:2]

>  <ProtectedSmiles>  (114) 
O=C(NCC1CCCn2ncc(C(=O)O)c21)OCC1c2ccccc2-c2ccccc21

>  <CAS>  (114) 
2138180-59-1

>  <User>  (114) 
angelica.l

>  <StereoComment>  (114) 
as drawn

>  <Name>  (114) 
4-[({[(9H-fluoren-9-yl)methoxy]carbonyl}amino)methyl]-4H,5H,6H,7H-pyrazolo[1,5-a]pyridine-3-carboxylic acid

>  <Code>  (114) 
racPyr[1,5-A]PyrCA

>  <AliasLowerCase>  (114) 
racpyr[1,5-a]pyrca

>  <LatestVersion>  (114) 
0.0

>  <createdAt>  (114) 
2026-01-14T11:35:17.915Z

>  <updatedAt>  (114) 
2026-01-14T11:35:17.915Z

>  <NumRotatableBonds>  (114) 
3

>  <is_N_methyl>  (114) 
False

>  <is_a_methyl>  (114) 
False

>  <is_alpha_aa>  (114) 
False

>  <is_beta_aa>  (114) 
False

>  <is_S100_aa>  (114) 
False

>  <Murcko_SMILES>  (114) 
c1cc2n(n1)CCCC2

$$$$

     RDKit          2D

 13 13  0  0  0  0  0  0  0  0999 V2000
    5.7760   -0.0000    0.0000 O   0  0  0  0  0  0  0  0  0  0  0  0
    5.0260    1.2990    0.0000 C   0  0  0  0  0  0  0  0  0  0  0  0
    3.5260    1.2990    0.0000 C   0  0  0  0  0  0  0  0  0  0  0  0
    2.7760    0.0000    0.0000 N   0  0  0  0  0  0  0  0  0  0  0  0
    1.2760    0.0000    0.0000 C   0  0  0  0  0  0  0  0  0  0  0  0
    0.3943    1.2135    0.0000 C   0  0  0  0  0  0  0  0  0  0  0  0
   -1.0323    0.7500    0.0000 C   0  0  0  0  0  0  0  0  0  0  0  0
   -1.0323   -0.7500    0.0000 S   0  0  0  0  0  0  0  0  0  0  0  0
   -1.3442   -2.2172    0.0000 O   0  0  0  0  0  0  0  0  0  0  0  0
   -2.5241   -0.5932    0.0000 O   0  0  0  0  0  0  0  0  0  0  0  0
    0.3943   -1.2135    0.0000 C   0  0  0  0  0  0  0  0  0  0  0  0
    3.5260   -1.2990    0.0000 R   0  0  0  0  0  1  0  0  0  1  0  0
    5.7760    2.5981    0.0000 R   0  0  0  0  0  1  0  0  0  2  0  0
  1  2  2  0
  2  3  1  0
  3  4  1  0
  4  5  1  0
  5  6  1  0
  6  7  1  0
  7  8  1  0
  8  9  2  0
  8 10  2  0
  8 11  1  0
  4 12  1  0
  2 13  1  0
 11  5  1  0
M  END
>  <id>  (115) 
ab895934-b88d-4ac9-85b3-ba5caaa811bc

>  <Version>  (115) 
0

>  <Alias>  (115) 
ThiaGlyCA

>  <Type>  (115) 
amino_acid

>  <Smiles>  (115) 
O=C(CN(C1CCS(=O)(=O)C1)[*:1])[*:2]

>  <ProtectedSmiles>  (115) 
O=C(O)CN(C(=O)OCC1c2ccccc2-c2ccccc21)C1CCS(=O)(=O)C1

>  <CAS>  (115) 
1343794-31-9

>  <User>  (115) 
Sevan.habeshian@orbismedicines.com

>  <StereoComment>  (115) 
as drawn

>  <Name>  (115) 
N/A

>  <Code>  (115) 
ThiaGlyCA

>  <AliasLowerCase>  (115) 
thiaglyca

>  <LatestVersion>  (115) 
0.0

>  <createdAt>  (115) 
2026-02-13T09:56:35.502Z

>  <updatedAt>  (115) 
2026-02-13T09:56:35.502Z

>  <NumRotatableBonds>  (115) 
3

>  <is_N_methyl>  (115) 
False

>  <is_a_methyl>  (115) 
False

>  <is_alpha_aa>  (115) 
True

>  <is_beta_aa>  (115) 
False

>  <is_S100_aa>  (115) 
False

>  <Murcko_SMILES>  (115) 
O=S1(=O)CCCC1

$$$$

     RDKit          2D

 10  9  0  0  0  0  0  0  0  0999 V2000
    5.1962    3.0000    0.0000 C   0  0  0  0  0  0  0  0  0  0  0  0
    3.8971    2.2500    0.0000 C   0  0  0  0  0  0  0  0  0  0  0  0
    3.8971    0.7500    0.0000 C   0  0  0  0  0  0  0  0  0  0  0  0
    5.1962   -0.0000    0.0000 C   0  0  0  0  0  0  0  0  0  0  0  0
    2.5981   -0.0000    0.0000 C   0  0  0  0  0  0  0  0  0  0  0  0
    1.2990    0.7500    0.0000 N   0  0  0  0  0  0  0  0  0  0  0  0
    0.0000    0.0000    0.0000 R   0  0  0  0  0  1  0  0  0  1  0  0
    2.5981   -1.5000    0.0000 C   0  0  0  0  0  0  0  0  0  0  0  0
    1.2990   -2.2500    0.0000 O   0  0  0  0  0  0  0  0  0  0  0  0
    3.8971   -2.2500    0.0000 R   0  0  0  0  0  1  0  0  0  2  0  0
  1  2  1  0
  2  3  1  0
  3  4  1  1
  3  5  1  0
  5  6  1  1
  6  7  1  0
  5  8  1  0
  8  9  2  0
  8 10  1  0
M  END
>  <id>  (116) 
16da8403-da0a-44c3-a633-40bb685f23e6

>  <Version>  (116) 
0

>  <Alias>  (116) 
allo-Ile

>  <Type>  (116) 
amino_acid

>  <Smiles>  (116) 
CC[C@@H](C)[C@H](N[*:1])C(=O)[*:2]

>  <ProtectedSmiles>  (116) 
CC[C@@H](C)[C@H](NC(=O)OCC1c2ccccc2-c2ccccc21)C(=O)O

>  <CAS>  (116) 
251316-98-0

>  <User>  (116) 
sevan.h

>  <StereoComment>  (116) 
as drawn

>  <Name>  (116) 
Fmoc-allo-Ile-oh

>  <Code>  (116) 
allo-Ile

>  <AliasLowerCase>  (116) 
allo-ile

>  <LatestVersion>  (116) 
0.0

>  <createdAt>  (116) 
2026-01-14T12:15:43.463Z

>  <updatedAt>  (116) 
2026-01-14T12:15:43.463Z

>  <NumRotatableBonds>  (116) 
4

>  <is_N_methyl>  (116) 
False

>  <is_a_methyl>  (116) 
False

>  <is_alpha_aa>  (116) 
True

>  <is_beta_aa>  (116) 
False

>  <is_S100_aa>  (116) 
False

>  <Murcko_SMILES>  (116) 


$$$$

     RDKit          2D

 15 16  0  0  0  0  0  0  0  0999 V2000
   -1.8373   -5.6601    0.0000 O   0  0  0  0  0  0  0  0  0  0  0  0
   -2.9520   -4.6564    0.0000 C   0  0  0  0  0  0  0  0  0  0  0  0
   -2.6401   -3.1891    0.0000 C   0  0  0  0  0  0  0  0  0  0  0  0
   -3.7548   -2.1855    0.0000 N   0  0  0  0  0  0  0  0  0  0  0  0
   -5.1814   -2.6490    0.0000 R   0  0  0  0  0  1  0  0  0  1  0  0
   -1.2135   -2.7256    0.0000 C   0  0  0  0  0  0  0  0  0  0  0  0
   -0.0000   -3.6073    0.0000 C   0  0  0  0  0  0  0  0  0  0  0  0
    1.2135   -2.7256    0.0000 N   0  0  0  0  0  0  0  0  0  0  0  0
    0.7500   -1.2990    0.0000 C   0  0  0  0  0  0  0  0  0  0  0  0
    1.5000    0.0000    0.0000 C   0  0  0  0  0  0  0  0  0  0  0  0
    0.7500    1.2990    0.0000 C   0  0  0  0  0  0  0  0  0  0  0  0
   -0.7500    1.2990    0.0000 C   0  0  0  0  0  0  0  0  0  0  0  0
   -1.5000    0.0000    0.0000 C   0  0  0  0  0  0  0  0  0  0  0  0
   -0.7500   -1.2990    0.0000 C   0  0  0  0  0  0  0  0  0  0  0  0
   -4.3786   -5.1199    0.0000 R   0  0  0  0  0  1  0  0  0  2  0  0
  1  2  2  0
  2  3  1  0
  3  4  1  0
  4  5  1  0
  3  6  1  0
  6  7  2  0
  7  8  1  0
  8  9  1  0
  9 10  2  0
 10 11  1  0
 11 12  2  0
 12 13  1  0
 13 14  2  0
  2 15  1  0
 14  6  1  0
 14  9  1  0
M  END
>  <id>  (117) 
4961b7c8-341d-41d6-868b-f18c9ec7d7b0

>  <Version>  (117) 
0

>  <Alias>  (117) 
indolGly

>  <Type>  (117) 
amino_acid

>  <Smiles>  (117) 
O=C(C(N[*:1])c1c[nH]c2ccccc12)[*:2]

>  <ProtectedSmiles>  (117) 
O=C(NC(C(=O)O)c1c[nH]c2ccccc12)OCC1c2ccccc2-c2ccccc21

>  <CAS>  (117) 
281655-55-8

>  <User>  (117) 
claire.m

>  <StereoComment>  (117) 
as drawn

>  <Name>  (117) 
1H-Indole-3-acetic acid, Î±-[[(9H-fluoren-9-ylmethoxy)carbonyl]amino]- (9CI, ACI)

>  <Code>  (117) 
indolGly

>  <AliasLowerCase>  (117) 
indolgly

>  <LatestVersion>  (117) 
0.0

>  <createdAt>  (117) 
2026-01-14T11:32:23.119Z

>  <updatedAt>  (117) 
2026-01-14T11:32:23.119Z

>  <NumRotatableBonds>  (117) 
3

>  <is_N_methyl>  (117) 
False

>  <is_a_methyl>  (117) 
False

>  <is_alpha_aa>  (117) 
True

>  <is_beta_aa>  (117) 
False

>  <is_S100_aa>  (117) 
False

>  <Murcko_SMILES>  (117) 
c1ccc2[nH]ccc2c1

$$$$

     RDKit          2D

  9  9  0  0  0  0  0  0  0  0999 V2000
    3.1160    1.2990    0.0000 O   0  0  0  0  0  0  0  0  0  0  0  0
    2.3660    0.0000    0.0000 C   0  0  0  0  0  0  0  0  0  0  0  0
    0.8660    0.0000    0.0000 C   0  0  0  0  0  0  0  0  0  0  0  0
   -0.4330    0.7500    0.0000 C   0  0  0  0  0  0  0  0  0  0  0  0
   -0.4330   -0.7500    0.0000 C   0  0  0  0  0  0  0  0  0  0  0  0
   -1.1830   -2.0490    0.0000 C   0  0  0  0  0  0  0  0  0  0  0  0
   -2.6830   -2.0490    0.0000 N   0  0  0  0  0  0  0  0  0  0  0  0
   -3.4330   -3.3481    0.0000 R   0  0  0  0  0  1  0  0  0  1  0  0
    3.1160   -1.2990    0.0000 R   0  0  0  0  0  1  0  0  0  2  0  0
  1  2  2  0
  3  2  1  1
  3  4  1  0
  4  5  1  0
  5  6  1  1
  6  7  1  0
  7  8  1  0
  2  9  1  0
  5  3  1  0
M  END
>  <id>  (118) 
7e584ad8-5fdd-4412-8e19-f4690484ec79

>  <Version>  (118) 
0

>  <Alias>  (118) 
(1R,2S)CPMeCA

>  <Type>  (118) 
amino_acid

>  <Smiles>  (118) 
O=C([C@@H]1C[C@@H]1CN[*:1])[*:2]

>  <ProtectedSmiles>  (118) 
O=C(NC[C@H]1C[C@H]1C(=O)O)OCC1c2ccccc2-c2ccccc21

>  <CAS>  (118) 
N/A

>  <User>  (118) 
Sevan.habeshian@orbismedicines.com

>  <StereoComment>  (118) 
rac-cis

>  <Name>  (118) 
N/A

>  <Code>  (118) 
(1R,2S)CPMeCA

>  <AliasLowerCase>  (118) 
(1r,2s)cpmeca

>  <LatestVersion>  (118) 
0.0

>  <createdAt>  (118) 
2026-02-13T09:56:35.495Z

>  <updatedAt>  (118) 
2026-02-13T09:56:35.495Z

>  <NumRotatableBonds>  (118) 
3

>  <is_N_methyl>  (118) 
False

>  <is_a_methyl>  (118) 
False

>  <is_alpha_aa>  (118) 
False

>  <is_beta_aa>  (118) 
False

>  <is_S100_aa>  (118) 
False

>  <Murcko_SMILES>  (118) 
C1CC1

$$$$

     RDKit          2D

 13 13  0  0  0  0  0  0  0  0999 V2000
    6.0000    0.0000    0.0000 O   0  0  0  0  0  0  0  0  0  0  0  0
    5.2500   -1.2990    0.0000 C   0  0  0  0  0  0  0  0  0  0  0  0
    3.7500   -1.2990    0.0000 C   0  0  0  0  0  0  0  0  0  0  0  0
    3.0000    0.0000    0.0000 C   0  0  0  0  0  0  0  0  0  0  0  0
    1.5000    0.0000    0.0000 C   0  0  0  0  0  0  0  0  0  0  0  0
    0.7500   -1.2990    0.0000 C   0  0  0  0  0  0  0  0  0  0  0  0
   -0.7500   -1.2990    0.0000 C   0  0  0  0  0  0  0  0  0  0  0  0
   -1.5000    0.0000    0.0000 C   0  0  0  0  0  0  0  0  0  0  0  0
   -0.7500    1.2990    0.0000 C   0  0  0  0  0  0  0  0  0  0  0  0
    0.7500    1.2990    0.0000 N   0  0  0  0  0  0  0  0  0  0  0  0
    3.0000   -2.5981    0.0000 N   0  0  0  0  0  0  0  0  0  0  0  0
    3.7500   -3.8971    0.0000 R   0  0  0  0  0  1  0  0  0  1  0  0
    6.0000   -2.5981    0.0000 R   0  0  0  0  0  1  0  0  0  2  0  0
  1  2  2  0
  2  3  1  0
  3  4  1  6
  4  5  1  0
  5  6  2  0
  6  7  1  0
  7  8  2  0
  8  9  1  0
  9 10  2  0
  3 11  1  0
 11 12  1  0
  2 13  1  0
 10  5  1  0
M  END
>  <id>  (119) 
9d93d056-85dd-4722-bdd2-51c42346770b

>  <Version>  (119) 
0

>  <Alias>  (119) 
D-2Pyr

>  <Type>  (119) 
amino_acid

>  <Smiles>  (119) 
O=C([C@@H](Cc1ccccn1)N[*:1])[*:2]

>  <ProtectedSmiles>  (119) 
O=C(N[C@H](Cc1ccccn1)C(=O)O)OCC1c2ccccc2-c2ccccc21

>  <CAS>  (119) 
185379-39-9

>  <User>  (119) 
sevan.h

>  <StereoComment>  (119) 
as drawn

>  <Name>  (119) 
Fmoc-d-2-pyridylalanine

>  <Code>  (119) 
D-2Pyr

>  <AliasLowerCase>  (119) 
d-2pyr

>  <LatestVersion>  (119) 
0.0

>  <createdAt>  (119) 
2026-01-14T12:16:23.276Z

>  <updatedAt>  (119) 
2026-01-14T12:16:23.276Z

>  <NumRotatableBonds>  (119) 
4

>  <is_N_methyl>  (119) 
False

>  <is_a_methyl>  (119) 
False

>  <is_alpha_aa>  (119) 
True

>  <is_beta_aa>  (119) 
False

>  <is_S100_aa>  (119) 
False

>  <Murcko_SMILES>  (119) 
c1ccncc1

$$$$

     RDKit          2D

 14 15  0  0  0  0  0  0  0  0999 V2000
    1.8373   -5.6601    0.0000 O   0  0  0  0  0  0  0  0  0  0  0  0
    2.9520   -4.6564    0.0000 C   0  0  0  0  0  0  0  0  0  0  0  0
    2.6401   -3.1891    0.0000 C   0  0  0  0  0  0  0  0  0  0  0  0
    1.2135   -2.7256    0.0000 C   0  0  0  0  0  0  0  0  0  0  0  0
    0.7500   -1.2990    0.0000 C   0  0  0  0  0  0  0  0  0  0  0  0
    1.5000    0.0000    0.0000 C   0  0  0  0  0  0  0  0  0  0  0  0
    0.7500    1.2990    0.0000 C   0  0  0  0  0  0  0  0  0  0  0  0
   -0.7500    1.2990    0.0000 C   0  0  0  0  0  0  0  0  0  0  0  0
   -1.5000    0.0000    0.0000 C   0  0  0  0  0  0  0  0  0  0  0  0
   -0.7500   -1.2990    0.0000 C   0  0  0  0  0  0  0  0  0  0  0  0
   -1.2135   -2.7256    0.0000 C   0  0  0  0  0  0  0  0  0  0  0  0
   -0.0000   -3.6073    0.0000 N   0  0  0  0  0  0  0  0  0  0  0  0
   -0.0000   -5.1073    0.0000 R   0  0  0  0  0  1  0  0  0  1  0  0
    4.3786   -5.1199    0.0000 R   0  0  0  0  0  1  0  0  0  2  0  0
  1  2  2  0
  2  3  1  0
  3  4  1  0
  4  5  1  0
  5  6  2  0
  6  7  1  0
  7  8  2  0
  8  9  1  0
  9 10  2  0
 10 11  1  0
 11 12  1  0
 12 13  1  0
  2 14  1  0
 12  4  1  0
 10  5  1  0
M  END
>  <id>  (120) 
80afa3b0-f575-4c0f-b97e-945196492400

>  <Version>  (120) 
0

>  <Alias>  (120) 
DHIIndolCA

>  <Type>  (120) 
amino_acid

>  <Smiles>  (120) 
O=C(CC1c2ccccc2CN1[*:1])[*:2]

>  <ProtectedSmiles>  (120) 
O=C(O)CC1c2ccccc2CN1C(=O)OCC1c2ccccc2-c2ccccc21

>  <CAS>  (120) 
2137646-60-5

>  <User>  (120) 
Sevan.habeshian@orbismedicines.com

>  <StereoComment>  (120) 
as drawn

>  <Name>  (120) 
N/A

>  <Code>  (120) 
DHIIndolCA

>  <AliasLowerCase>  (120) 
dhiindolca

>  <LatestVersion>  (120) 
0.0

>  <createdAt>  (120) 
2026-02-13T09:56:36.375Z

>  <updatedAt>  (120) 
2026-02-13T09:56:36.375Z

>  <NumRotatableBonds>  (120) 
2

>  <is_N_methyl>  (120) 
False

>  <is_a_methyl>  (120) 
False

>  <is_alpha_aa>  (120) 
False

>  <is_beta_aa>  (120) 
True

>  <is_S100_aa>  (120) 
False

>  <Murcko_SMILES>  (120) 
c1ccc2c(c1)CNC2

$$$$

     RDKit          2D

 15 16  0  0  0  0  0  0  0  0999 V2000
    5.8875   -3.9505    0.0000 O   0  0  0  0  0  0  0  0  0  0  0  0
    4.6740   -4.8322    0.0000 C   0  0  0  0  0  0  0  0  0  0  0  0
    3.3037   -4.2221    0.0000 C   0  0  0  0  0  0  0  0  0  0  0  0
    2.9918   -2.7549    0.0000 C   0  0  0  0  0  0  0  0  0  0  0  0
    1.5000   -2.5981    0.0000 C   0  0  0  0  0  0  0  0  0  0  0  0
    0.7500   -1.2990    0.0000 C   0  0  0  0  0  0  0  0  0  0  0  0
    1.5000    0.0000    0.0000 C   0  0  0  0  0  0  0  0  0  0  0  0
    0.7500    1.2990    0.0000 C   0  0  0  0  0  0  0  0  0  0  0  0
   -0.7500    1.2990    0.0000 C   0  0  0  0  0  0  0  0  0  0  0  0
   -1.5000    0.0000    0.0000 C   0  0  0  0  0  0  0  0  0  0  0  0
   -0.7500   -1.2990    0.0000 C   0  0  0  0  0  0  0  0  0  0  0  0
    0.8899   -3.9684    0.0000 C   0  0  0  0  0  0  0  0  0  0  0  0
    2.0046   -4.9721    0.0000 N   0  0  0  0  0  0  0  0  0  0  0  0
    1.8478   -6.4639    0.0000 R   0  0  0  0  0  1  0  0  0  1  0  0
    4.8308   -6.3240    0.0000 R   0  0  0  0  0  1  0  0  0  2  0  0
  1  2  2  0
  3  2  1  1
  3  4  1  0
  4  5  1  0
  5  6  1  6
  6  7  1  0
  7  8  1  0
  8  9  1  0
  9 10  1  0
 10 11  1  0
  5 12  1  0
 12 13  1  0
 13 14  1  0
  2 15  1  0
 13  3  1  0
 11  6  1  0
M  END
>  <id>  (121) 
597dde3b-389e-4876-9491-a34423e37b96

>  <Version>  (121) 
0

>  <Alias>  (121) 
(4S-cHex)Pro

>  <Type>  (121) 
amino_acid

>  <Smiles>  (121) 
O=C([C@@H]1C[C@@H](C2CCCCC2)CN1[*:1])[*:2]

>  <ProtectedSmiles>  (121) 
O=C(O)[C@@H]1C[C@@H](C2CCCCC2)CN1C(=O)OCC1c2ccccc2-c2ccccc21

>  <CAS>  (121) 
467438-40-0

>  <User>  (121) 
marie.g

>  <StereoComment>  (121) 
as drawn

>  <Name>  (121) 
(2S,4S)-Fmoc-4-cyclohexyl-pyrrolidine-2-carboxylic acid

>  <Code>  (121) 
(4S-cHex)Pro

>  <AliasLowerCase>  (121) 
(4s-chex)pro

>  <LatestVersion>  (121) 
0.0

>  <createdAt>  (121) 
2026-01-14T11:33:48.114Z

>  <updatedAt>  (121) 
2026-01-14T11:33:48.114Z

>  <NumRotatableBonds>  (121) 
2

>  <is_N_methyl>  (121) 
False

>  <is_a_methyl>  (121) 
False

>  <is_alpha_aa>  (121) 
True

>  <is_beta_aa>  (121) 
False

>  <is_S100_aa>  (121) 
False

>  <Murcko_SMILES>  (121) 
C1CCC([C@@H]2CCNC2)CC1

$$$$

     RDKit          2D

 13 13  0  0  0  0  0  0  0  0999 V2000
    2.7760    0.0000    0.0000 C   0  0  0  0  0  0  0  0  0  0  0  0
    1.2760    0.0000    0.0000 C   0  0  0  0  0  0  0  0  0  0  0  0
    0.3943    1.2135    0.0000 N   0  0  0  0  0  0  0  0  0  0  0  0
   -1.0323    0.7500    0.0000 C   0  0  0  0  0  0  0  0  0  0  0  0
   -2.2458    1.6317    0.0000 C   0  0  0  0  0  0  0  0  0  0  0  0
   -2.0890    3.1235    0.0000 C   0  0  0  0  0  0  0  0  0  0  0  0
   -3.3025    4.0051    0.0000 N   0  0  0  0  0  0  0  0  0  0  0  0
   -3.1458    5.4969    0.0000 R   0  0  0  0  0  1  0  0  0  1  0  0
   -1.0323   -0.7500    0.0000 S   0  0  0  0  0  0  0  0  0  0  0  0
    0.3943   -1.2135    0.0000 C   0  0  0  0  0  0  0  0  0  0  0  0
    0.8578   -2.6401    0.0000 C   0  0  0  0  0  0  0  0  0  0  0  0
    2.3250   -2.9520    0.0000 O   0  0  0  0  0  0  0  0  0  0  0  0
   -0.1459   -3.7548    0.0000 R   0  0  0  0  0  1  0  0  0  2  0  0
  1  2  1  0
  2  3  1  0
  3  4  2  0
  4  5  1  0
  5  6  1  0
  6  7  1  0
  7  8  1  0
  4  9  1  0
  9 10  1  0
 10 11  1  0
 11 12  2  0
 11 13  1  0
 10  2  2  0
M  END
>  <id>  (122) 
bc97e91e-1303-4497-891c-5b9657c7dc32

>  <Version>  (122) 
0

>  <Alias>  (122) 
4MeTzaAcA

>  <Type>  (122) 
amino_acid

>  <Smiles>  (122) 
Cc1nc(CCN[*:1])sc1C(=O)[*:2]

>  <ProtectedSmiles>  (122) 
Cc1nc(CCNC(=O)OCC2c3ccccc3-c3ccccc32)sc1C(=O)O

>  <CAS>  (122) 
2092501-01-2

>  <User>  (122) 
Sevan.habeshian@orbismedicines.com

>  <StereoComment>  (122) 
as drawn

>  <Name>  (122) 
N/A

>  <Code>  (122) 
4MeTzaAcA

>  <AliasLowerCase>  (122) 
4metzaaca

>  <LatestVersion>  (122) 
0.0

>  <createdAt>  (122) 
2026-02-13T09:56:35.394Z

>  <updatedAt>  (122) 
2026-02-13T09:56:35.394Z

>  <NumRotatableBonds>  (122) 
4

>  <is_N_methyl>  (122) 
False

>  <is_a_methyl>  (122) 
False

>  <is_alpha_aa>  (122) 
False

>  <is_beta_aa>  (122) 
False

>  <is_S100_aa>  (122) 
False

>  <Murcko_SMILES>  (122) 
c1cscn1

$$$$

     RDKit          2D

 12 11  0  0  0  0  0  0  0  0999 V2000
    7.7942   -1.5000    0.0000 O   0  0  0  0  0  0  0  0  0  0  0  0
    7.7942   -0.0000    0.0000 C   0  0  0  0  0  0  0  0  0  0  0  0
    9.0933    0.7500    0.0000 O   0  0  0  0  0  0  0  0  0  0  0  0
    6.4952    0.7500    0.0000 C   0  0  0  0  0  0  0  0  0  0  0  0
    5.1962   -0.0000    0.0000 C   0  0  0  0  0  0  0  0  0  0  0  0
    3.8971    0.7500    0.0000 C   0  0  0  0  0  0  0  0  0  0  0  0
    2.5981   -0.0000    0.0000 C   0  0  0  0  0  0  0  0  0  0  0  0
    1.2990    0.7500    0.0000 C   0  0  0  0  0  0  0  0  0  0  0  0
    1.2990    2.2500    0.0000 O   0  0  0  0  0  0  0  0  0  0  0  0
    0.0000    0.0000    0.0000 R   0  0  0  0  0  1  0  0  0  2  0  0
    3.8971    2.2500    0.0000 N   0  0  0  0  0  0  0  0  0  0  0  0
    5.1962    3.0000    0.0000 R   0  0  0  0  0  1  0  0  0  1  0  0
  1  2  2  0
  2  3  1  0
  2  4  1  0
  4  5  1  0
  6  5  1  1
  6  7  1  0
  7  8  1  0
  8  9  2  0
  8 10  1  0
  6 11  1  0
 11 12  1  0
M  END
>  <id>  (123) 
105568ef-b754-47b9-9ecf-77a23d28dade

>  <Version>  (123) 
0

>  <Alias>  (123) 
B-hGlu

>  <Type>  (123) 
amino_acid

>  <Smiles>  (123) 
O=C(O)CC[C@@H](CC(=O)[*:2])N[*:1]

>  <ProtectedSmiles>  (123) 
CC(C)(C)OC(=O)CC[C@@H](CC(=O)O)NC(=O)OCC1c2ccccc2-c2ccccc21

>  <CAS>  (123) 
203854-49-3

>  <User>  (123) 
sevan.h

>  <StereoComment>  (123) 
as drawn

>  <Name>  (123) 
Fmoc-l-beta-homoglutamic acid

>  <Code>  (123) 
B-hGlu

>  <AliasLowerCase>  (123) 
b-hglu

>  <LatestVersion>  (123) 
0.0

>  <createdAt>  (123) 
2026-01-14T12:15:42.392Z

>  <updatedAt>  (123) 
2026-01-14T12:15:42.392Z

>  <NumRotatableBonds>  (123) 
6

>  <is_N_methyl>  (123) 
False

>  <is_a_methyl>  (123) 
False

>  <is_alpha_aa>  (123) 
False

>  <is_beta_aa>  (123) 
True

>  <is_S100_aa>  (123) 
False

>  <Murcko_SMILES>  (123) 


$$$$

     RDKit          2D

 11 11  0  0  0  0  0  0  0  0999 V2000
    2.7760   -2.5981    0.0000 O   0  0  0  0  0  0  0  0  0  0  0  0
    3.5260   -1.2990    0.0000 C   0  0  0  0  0  0  0  0  0  0  0  0
    2.7760    0.0000    0.0000 C   0  0  0  0  0  0  0  0  0  0  0  0
    3.5260    1.2990    0.0000 N   0  0  0  0  0  0  0  0  0  0  0  0
    5.0260    1.2990    0.0000 R   0  0  0  0  0  1  0  0  0  1  0  0
    1.2760    0.0000    0.0000 C   0  0  0  0  0  0  0  0  0  0  0  0
    0.3943    1.2135    0.0000 C   0  0  0  0  0  0  0  0  0  0  0  0
   -1.0323    0.7500    0.0000 C   0  0  0  0  0  0  0  0  0  0  0  0
   -1.0323   -0.7500    0.0000 C   0  0  0  0  0  0  0  0  0  0  0  0
    0.3943   -1.2135    0.0000 C   0  0  0  0  0  0  0  0  0  0  0  0
    5.0260   -1.2990    0.0000 R   0  0  0  0  0  1  0  0  0  2  0  0
  1  2  2  0
  2  3  1  0
  3  4  1  6
  4  5  1  0
  3  6  1  0
  6  7  1  0
  7  8  1  0
  8  9  1  0
  9 10  1  0
  2 11  1  0
 10  6  1  0
M  END
>  <id>  (124) 
35ab0842-b579-4882-b510-35130db2d513

>  <Version>  (124) 
0

>  <Alias>  (124) 
Cpg

>  <Type>  (124) 
amino_acid

>  <Smiles>  (124) 
O=C([C@@H](N[*:1])C1CCCC1)[*:2]

>  <ProtectedSmiles>  (124) 
O=C(N[C@H](C(=O)O)C1CCCC1)OCC1c2ccccc2-c2ccccc21

>  <CAS>  (124) 
220497-61-0

>  <User>  (124) 
emile.b

>  <StereoComment>  (124) 
as drawn

>  <Name>  (124) 
Fmoc-Cpg-OH

>  <Code>  (124) 
Cpg

>  <AliasLowerCase>  (124) 
cpg

>  <LatestVersion>  (124) 
0.0

>  <createdAt>  (124) 
2026-01-14T11:34:47.843Z

>  <updatedAt>  (124) 
2026-01-14T11:34:47.843Z

>  <NumRotatableBonds>  (124) 
3

>  <is_N_methyl>  (124) 
False

>  <is_a_methyl>  (124) 
False

>  <is_alpha_aa>  (124) 
True

>  <is_beta_aa>  (124) 
False

>  <is_S100_aa>  (124) 
False

>  <Murcko_SMILES>  (124) 
C1CCCC1

$$$$

     RDKit          2D

 14 14  0  0  0  0  0  0  0  0999 V2000
    6.0000    0.0000    0.0000 O   0  0  0  0  0  0  0  0  0  0  0  0
    5.2500   -1.2990    0.0000 C   0  0  0  0  0  0  0  0  0  0  0  0
    3.7500   -1.2990    0.0000 C   0  0  0  0  0  0  0  0  0  0  0  0
    3.0000    0.0000    0.0000 C   0  0  0  0  0  0  0  0  0  0  0  0
    1.5000    0.0000    0.0000 C   0  0  0  0  0  0  0  0  0  0  0  0
    0.7500   -1.2990    0.0000 C   0  0  0  0  0  0  0  0  0  0  0  0
   -0.7500   -1.2990    0.0000 C   0  0  0  0  0  0  0  0  0  0  0  0
   -1.5000    0.0000    0.0000 C   0  0  0  0  0  0  0  0  0  0  0  0
   -0.7500    1.2990    0.0000 C   0  0  0  0  0  0  0  0  0  0  0  0
   -1.5000    2.5981    0.0000 O   0  0  0  0  0  0  0  0  0  0  0  0
    0.7500    1.2990    0.0000 C   0  0  0  0  0  0  0  0  0  0  0  0
    3.0000   -2.5981    0.0000 N   0  0  0  0  0  0  0  0  0  0  0  0
    3.7500   -3.8971    0.0000 R   0  0  0  0  0  1  0  0  0  1  0  0
    6.0000   -2.5981    0.0000 R   0  0  0  0  0  1  0  0  0  2  0  0
  1  2  2  0
  2  3  1  0
  3  4  1  0
  4  5  1  0
  5  6  2  0
  6  7  1  0
  7  8  2  0
  8  9  1  0
  9 10  1  0
  9 11  2  0
  3 12  1  0
 12 13  1  0
  2 14  1  0
 11  5  1  0
M  END
>  <id>  (125) 
20d7d787-d918-453f-8b72-bc7b023c83e2

>  <Version>  (125) 
0

>  <Alias>  (125) 
rac3HOPhe

>  <Type>  (125) 
amino_acid

>  <Smiles>  (125) 
O=C(C(Cc1cccc(O)c1)N[*:1])[*:2]

>  <ProtectedSmiles>  (125) 
O=C(NC(Cc1cccc(O)c1)C(=O)O)OCC1c2ccccc2-c2ccccc21

>  <CAS>  (125) 
138775-49-2

>  <User>  (125) 
clement.gensous@orbismedicines.com

>  <StereoComment>  (125) 
as drawn

>  <Name>  (125) 
rac3HOPhe

>  <Code>  (125) 
rac3HOPhe

>  <AliasLowerCase>  (125) 
rac3hophe

>  <LatestVersion>  (125) 
0.0

>  <createdAt>  (125) 
2026-01-15T09:28:51.231Z

>  <updatedAt>  (125) 
2026-01-15T09:28:51.231Z

>  <NumRotatableBonds>  (125) 
4

>  <is_N_methyl>  (125) 
False

>  <is_a_methyl>  (125) 
False

>  <is_alpha_aa>  (125) 
True

>  <is_beta_aa>  (125) 
False

>  <is_S100_aa>  (125) 
False

>  <Murcko_SMILES>  (125) 
c1ccccc1

$$$$

     RDKit          2D

 10 10  0  0  0  0  0  0  0  0999 V2000
    3.3107   -1.2990    0.0000 C   0  0  0  0  0  0  0  0  0  0  0  0
    2.5607    0.0000    0.0000 C   0  0  0  0  0  0  0  0  0  0  0  0
    3.3107    1.2990    0.0000 C   0  0  0  0  0  0  0  0  0  0  0  0
    2.5607    2.5981    0.0000 O   0  0  0  0  0  0  0  0  0  0  0  0
    4.8107    1.2990    0.0000 R   0  0  0  0  0  1  0  0  0  2  0  0
    1.0607    0.0000    0.0000 C   0  0  0  0  0  0  0  0  0  0  0  0
   -0.0000   -1.0607    0.0000 C   0  0  0  0  0  0  0  0  0  0  0  0
   -1.0607    0.0000    0.0000 N   0  0  0  0  0  0  0  0  0  0  0  0
   -2.5607    0.0000    0.0000 R   0  0  0  0  0  1  0  0  0  1  0  0
    0.0000    1.0607    0.0000 C   0  0  0  0  0  0  0  0  0  0  0  0
  1  2  1  0
  2  3  1  0
  3  4  2  0
  3  5  1  0
  2  6  1  0
  6  7  1  0
  7  8  1  0
  8  9  1  0
  8 10  1  0
 10  6  1  0
M  END
>  <id>  (126) 
41119cf6-9bb1-4c5c-a124-bbd36c9c9af9

>  <Version>  (126) 
0

>  <Alias>  (126) 
aMe_3Azet

>  <Type>  (126) 
amino_acid

>  <Smiles>  (126) 
CC(C(=O)[*:2])C1CN([*:1])C1

>  <ProtectedSmiles>  (126) 
CC(C(=O)O)C1CN(C(=O)OCC2c3ccccc3-c3ccccc32)C1

>  <CAS>  (126) 
1594944-87-2

>  <User>  (126) 
sevan.h

>  <StereoComment>  (126) 
as drawn

>  <Name>  (126) 
2-(1-{[(9H-fluoren-9-yl)methoxy]carbonyl}azetidin-3-yl)propanoic acid

>  <Code>  (126) 
aMe_3Azet

>  <AliasLowerCase>  (126) 
ame_3azet

>  <LatestVersion>  (126) 
0.0

>  <createdAt>  (126) 
2026-01-14T11:32:48.548Z

>  <updatedAt>  (126) 
2026-01-14T11:32:48.548Z

>  <NumRotatableBonds>  (126) 
2

>  <is_N_methyl>  (126) 
False

>  <is_a_methyl>  (126) 
False

>  <is_alpha_aa>  (126) 
False

>  <is_beta_aa>  (126) 
False

>  <is_S100_aa>  (126) 
False

>  <Murcko_SMILES>  (126) 
C1CNC1

$$$$

     RDKit          2D

 12 13  0  0  0  0  0  0  0  0999 V2000
   -1.5000   -4.0981    0.0000 O   0  0  0  0  0  0  0  0  0  0  0  0
   -0.0000   -4.0981    0.0000 C   0  0  0  0  0  0  0  0  0  0  0  0
    0.7500   -2.7990    0.0000 C   0  0  0  0  0  0  0  0  0  0  0  0
    2.0490   -2.0490    0.0000 C   0  0  0  0  0  0  0  0  0  0  0  0
    0.7500   -1.2990    0.0000 C   0  0  0  0  0  0  0  0  0  0  0  0
    1.5000    0.0000    0.0000 C   0  0  0  0  0  0  0  0  0  0  0  0
    0.7500    1.2990    0.0000 C   0  0  0  0  0  0  0  0  0  0  0  0
   -0.7500    1.2990    0.0000 C   0  0  0  0  0  0  0  0  0  0  0  0
   -1.5000    0.0000    0.0000 N   0  0  0  0  0  0  0  0  0  0  0  0
   -3.0000    0.0000    0.0000 R   0  0  0  0  0  1  0  0  0  1  0  0
   -0.7500   -1.2990    0.0000 C   0  0  0  0  0  0  0  0  0  0  0  0
    0.7500   -5.3971    0.0000 R   0  0  0  0  0  1  0  0  0  2  0  0
  1  2  2  0
  2  3  1  0
  3  4  1  0
  4  5  1  0
  5  6  1  0
  6  7  1  0
  7  8  1  0
  8  9  1  0
  9 10  1  0
  9 11  1  0
  2 12  1  0
  5  3  1  0
 11  5  1  0
M  END
>  <id>  (127) 
67b7a034-b6e9-4b7e-8556-be14bfc65ff2

>  <Version>  (127) 
0

>  <Alias>  (127) 
SpiroOct

>  <Type>  (127) 
amino_acid

>  <Smiles>  (127) 
O=C(C1CC12CCCN([*:1])C2)[*:2]

>  <ProtectedSmiles>  (127) 
O=C(O)C1CC12CCCN(C(=O)OCC1c3ccccc3-c3ccccc31)C2

>  <CAS>  (127) 
2137662-34-9

>  <User>  (127) 
sevan.h

>  <StereoComment>  (127) 
as drawn

>  <Name>  (127) 
Fmoc- 5-azaspiro[2.5]octane-1,5-dicarboxylate

>  <Code>  (127) 
SpiroOct

>  <AliasLowerCase>  (127) 
spirooct

>  <LatestVersion>  (127) 
0.0

>  <createdAt>  (127) 
2026-01-14T11:38:32.764Z

>  <updatedAt>  (127) 
2026-01-14T11:38:32.764Z

>  <NumRotatableBonds>  (127) 
1

>  <is_N_methyl>  (127) 
False

>  <is_a_methyl>  (127) 
False

>  <is_alpha_aa>  (127) 
False

>  <is_beta_aa>  (127) 
False

>  <is_S100_aa>  (127) 
False

>  <Murcko_SMILES>  (127) 
C1CNCC2(C1)CC2

$$$$

     RDKit          2D

 10 10  0  0  0  0  0  0  0  0999 V2000
    5.3660    0.0000    0.0000 O   0  0  0  0  0  0  0  0  0  0  0  0
    4.6160   -1.2990    0.0000 C   0  0  0  0  0  0  0  0  0  0  0  0
    3.1160   -1.2990    0.0000 C   0  0  0  0  0  0  0  0  0  0  0  0
    2.3660    0.0000    0.0000 C   0  0  0  0  0  0  0  0  0  0  0  0
    3.1160    1.2990    0.0000 N   0  0  0  0  0  0  0  0  0  0  0  0
    4.6160    1.2990    0.0000 R   0  0  0  0  0  1  0  0  0  1  0  0
    0.8660    0.0000    0.0000 C   0  0  0  0  0  0  0  0  0  0  0  0
   -0.4330    0.7500    0.0000 C   0  0  0  0  0  0  0  0  0  0  0  0
   -0.4330   -0.7500    0.0000 C   0  0  0  0  0  0  0  0  0  0  0  0
    5.3660   -2.5981    0.0000 R   0  0  0  0  0  1  0  0  0  2  0  0
  1  2  2  0
  2  3  1  0
  3  4  1  0
  4  5  1  0
  5  6  1  0
  4  7  1  0
  7  8  1  0
  8  9  1  0
  2 10  1  0
  9  7  1  0
M  END
>  <id>  (128) 
fa99b4a9-d246-4fa7-8ed7-dae5cd9d59f1

>  <Version>  (128) 
0

>  <Alias>  (128) 
rac3-(cProp)PA

>  <Type>  (128) 
amino_acid

>  <Smiles>  (128) 
O=C(CC(N[*:1])C1CC1)[*:2]

>  <ProtectedSmiles>  (128) 
O=C(O)CC(NC(=O)OCC1c2ccccc2-c2ccccc21)C1CC1

>  <CAS>  (128) 
683217-51-8

>  <User>  (128) 
Sevan.habeshian@orbismedicines.com

>  <StereoComment>  (128) 
as drawn

>  <Name>  (128) 
N/A

>  <Code>  (128) 
rac3-(cProp)PA

>  <AliasLowerCase>  (128) 
rac3-(cprop)pa

>  <LatestVersion>  (128) 
0.0

>  <createdAt>  (128) 
2026-02-13T09:56:36.395Z

>  <updatedAt>  (128) 
2026-02-13T09:56:36.395Z

>  <NumRotatableBonds>  (128) 
4

>  <is_N_methyl>  (128) 
False

>  <is_a_methyl>  (128) 
False

>  <is_alpha_aa>  (128) 
False

>  <is_beta_aa>  (128) 
True

>  <is_S100_aa>  (128) 
False

>  <Murcko_SMILES>  (128) 
C1CC1

$$$$

     RDKit          2D

 15 16  0  0  0  0  0  0  0  0999 V2000
    3.0613   -7.3456    0.0000 O   0  0  0  0  0  0  0  0  0  0  0  0
    1.8478   -6.4639    0.0000 C   0  0  0  0  0  0  0  0  0  0  0  0
    2.0046   -4.9721    0.0000 C   0  0  0  0  0  0  0  0  0  0  0  0
    3.3037   -4.2221    0.0000 C   0  0  0  0  0  0  0  0  0  0  0  0
    2.9918   -2.7549    0.0000 C   0  0  0  0  0  0  0  0  0  0  0  0
    1.5000   -2.5981    0.0000 C   0  0  0  0  0  0  0  0  0  0  0  0
    0.7500   -1.2990    0.0000 C   0  0  0  0  0  0  0  0  0  0  0  0
    1.5000    0.0000    0.0000 C   0  0  0  0  0  0  0  0  0  0  0  0
    0.7500    1.2990    0.0000 C   0  0  0  0  0  0  0  0  0  0  0  0
   -0.7500    1.2990    0.0000 C   0  0  0  0  0  0  0  0  0  0  0  0
   -1.5000    0.0000    0.0000 C   0  0  0  0  0  0  0  0  0  0  0  0
   -0.7500   -1.2990    0.0000 C   0  0  0  0  0  0  0  0  0  0  0  0
    0.8899   -3.9684    0.0000 N   0  0  0  0  0  0  0  0  0  0  0  0
   -0.5773   -4.2803    0.0000 R   0  0  0  0  0  1  0  0  0  1  0  0
    0.4775   -7.0740    0.0000 R   0  0  0  0  0  1  0  0  0  2  0  0
  1  2  2  0
  3  2  1  1
  3  4  1  0
  4  5  1  0
  5  6  1  0
  6  7  1  1
  7  8  2  0
  8  9  1  0
  9 10  2  0
 10 11  1  0
 11 12  2  0
  6 13  1  0
 13 14  1  0
  2 15  1  0
 13  3  1  0
 12  7  1  0
M  END
>  <id>  (129) 
ecfdeff1-1c7c-4fac-9a3e-9212f8957f60

>  <Version>  (129) 
0

>  <Alias>  (129) 
(5R)Ph(2S)Pyrr

>  <Type>  (129) 
amino_acid

>  <Smiles>  (129) 
O=C([C@@H]1CC[C@H](c2ccccc2)N1[*:1])[*:2]

>  <ProtectedSmiles>  (129) 
O=C(O)[C@@H]1CC[C@H](c2ccccc2)N1C(=O)OCC1c2ccccc2-c2ccccc21

>  <CAS>  (129) 
215190-21-9

>  <User>  (129) 
mischa.s

>  <StereoComment>  (129) 
as drawn

>  <Name>  (129) 
Fmoc-(2r,5r)-5-phenyl-pyrrolidine-2-carboxylic acid

>  <Code>  (129) 
(5R)Ph(2S)Pyrr

>  <AliasLowerCase>  (129) 
(5r)ph(2s)pyrr

>  <LatestVersion>  (129) 
0.0

>  <createdAt>  (129) 
2026-01-14T11:37:27.368Z

>  <updatedAt>  (129) 
2026-01-14T11:37:27.368Z

>  <NumRotatableBonds>  (129) 
2

>  <is_N_methyl>  (129) 
False

>  <is_a_methyl>  (129) 
False

>  <is_alpha_aa>  (129) 
True

>  <is_beta_aa>  (129) 
False

>  <is_S100_aa>  (129) 
False

>  <Murcko_SMILES>  (129) 
c1ccc([C@H]2CCCN2)cc1

$$$$

     RDKit          2D

 13 13  0  0  0  0  0  0  0  0999 V2000
    6.0000    0.0000    0.0000 O   0  0  0  0  0  0  0  0  0  0  0  0
    5.2500   -1.2990    0.0000 C   0  0  0  0  0  0  0  0  0  0  0  0
    3.7500   -1.2990    0.0000 C   0  0  0  0  0  0  0  0  0  0  0  0
    3.0000    0.0000    0.0000 O   0  0  0  0  0  0  0  0  0  0  0  0
    1.5000    0.0000    0.0000 C   0  0  0  0  0  0  0  0  0  0  0  0
    0.7500   -1.2990    0.0000 C   0  0  0  0  0  0  0  0  0  0  0  0
   -0.7500   -1.2990    0.0000 C   0  0  0  0  0  0  0  0  0  0  0  0
   -1.5000    0.0000    0.0000 C   0  0  0  0  0  0  0  0  0  0  0  0
   -3.0000    0.0000    0.0000 N   0  0  0  0  0  0  0  0  0  0  0  0
   -3.7500    1.2990    0.0000 R   0  0  0  0  0  1  0  0  0  1  0  0
   -0.7500    1.2990    0.0000 C   0  0  0  0  0  0  0  0  0  0  0  0
    0.7500    1.2990    0.0000 C   0  0  0  0  0  0  0  0  0  0  0  0
    6.0000   -2.5981    0.0000 R   0  0  0  0  0  1  0  0  0  2  0  0
  1  2  2  0
  2  3  1  0
  3  4  1  0
  5  4  1  1
  5  6  1  0
  6  7  1  0
  7  8  1  0
  8  9  1  6
  9 10  1  0
  8 11  1  0
 11 12  1  0
  2 13  1  0
 12  5  1  0
M  END
>  <id>  (130) 
5997ca64-92c5-48a8-ac5b-a70e3956ea7e

>  <Version>  (130) 
0

>  <Alias>  (130) 
4AmcHexoxyAc

>  <Type>  (130) 
amino_acid

>  <Smiles>  (130) 
O=C(CO[C@H]1CC[C@H](N[*:1])CC1)[*:2]

>  <ProtectedSmiles>  (130) 
O=C(O)CO[C@H]1CC[C@H](NC(=O)OCC2c3ccccc3-c3ccccc32)CC1

>  <CAS>  (130) 
2137082-41-6

>  <User>  (130) 
Sevan.habeshian@orbismedicines.com

>  <StereoComment>  (130) 
rac-trans

>  <Name>  (130) 
N/A

>  <Code>  (130) 
4AmcHexoxyAc

>  <AliasLowerCase>  (130) 
4amchexoxyac

>  <LatestVersion>  (130) 
0.0

>  <createdAt>  (130) 
2026-02-13T09:56:36.305Z

>  <updatedAt>  (130) 
2026-02-13T09:56:36.305Z

>  <NumRotatableBonds>  (130) 
4

>  <is_N_methyl>  (130) 
False

>  <is_a_methyl>  (130) 
False

>  <is_alpha_aa>  (130) 
False

>  <is_beta_aa>  (130) 
False

>  <is_S100_aa>  (130) 
False

>  <Murcko_SMILES>  (130) 
C1CCCCC1

$$$$

     RDKit          2D

 11 11  0  0  0  0  0  0  0  0999 V2000
    3.7500    1.2990    0.0000 O   0  0  0  0  0  0  0  0  0  0  0  0
    3.0000    0.0000    0.0000 C   0  0  0  0  0  0  0  0  0  0  0  0
    1.5000    0.0000    0.0000 C   0  0  0  0  0  0  0  0  0  0  0  0
    0.7500   -1.2990    0.0000 C   0  0  0  0  0  0  0  0  0  0  0  0
   -0.7500   -1.2990    0.0000 C   0  0  0  0  0  0  0  0  0  0  0  0
   -1.5000    0.0000    0.0000 C   0  0  0  0  0  0  0  0  0  0  0  0
   -0.7500    1.2990    0.0000 C   0  0  0  0  0  0  0  0  0  0  0  0
    0.7500    1.2990    0.0000 C   0  0  0  0  0  0  0  0  0  0  0  0
    1.5000    2.5981    0.0000 N   0  0  0  0  0  0  0  0  0  0  0  0
    0.7500    3.8971    0.0000 R   0  0  0  0  0  1  0  0  0  1  0  0
    3.7500   -1.2990    0.0000 R   0  0  0  0  0  1  0  0  0  2  0  0
  1  2  2  0
  3  2  1  6
  3  4  1  0
  4  5  1  0
  5  6  1  0
  6  7  1  0
  7  8  1  0
  8  9  1  1
  9 10  1  0
  2 11  1  0
  8  3  1  0
M  END
>  <id>  (131) 
b041ba55-7b1c-4e5b-9e22-c532ff62671f

>  <Version>  (131) 
0

>  <Alias>  (131) 
(1R,2R)t1,2ACH

>  <Type>  (131) 
amino_acid

>  <Smiles>  (131) 
O=C([C@@H]1CCCC[C@H]1N[*:1])[*:2]

>  <ProtectedSmiles>  (131) 
O=C(N[C@@H]1CCCC[C@H]1C(=O)O)OCC1c2ccccc2-c2ccccc21

>  <CAS>  (131) 
389057-34-5

>  <User>  (131) 
sevan.h

>  <StereoComment>  (131) 
as drawn

>  <Name>  (131) 
abs (1R,2R)-2-(9H-fluoren-9-ylmethoxycarbonylamino)cyclohexanecarboxylic acid

>  <Code>  (131) 
(1R,2R)t1,2ACH

>  <AliasLowerCase>  (131) 
(1r,2r)t1,2ach

>  <LatestVersion>  (131) 
0.0

>  <createdAt>  (131) 
2026-01-14T11:32:32.578Z

>  <updatedAt>  (131) 
2026-01-14T11:32:32.578Z

>  <NumRotatableBonds>  (131) 
2

>  <is_N_methyl>  (131) 
False

>  <is_a_methyl>  (131) 
False

>  <is_alpha_aa>  (131) 
False

>  <is_beta_aa>  (131) 
True

>  <is_S100_aa>  (131) 
False

>  <Murcko_SMILES>  (131) 
C1CCCCC1

$$$$

     RDKit          2D

 13 13  0  0  0  0  0  0  0  0999 V2000
    5.2500   -3.8971    0.0000 O   0  0  0  0  0  0  0  0  0  0  0  0
    6.0000   -2.5981    0.0000 C   0  0  0  0  0  0  0  0  0  0  0  0
    5.2500   -1.2990    0.0000 C   0  0  0  0  0  0  0  0  0  0  0  0
    3.7500   -1.2990    0.0000 O   0  0  0  0  0  0  0  0  0  0  0  0
    3.0000    0.0000    0.0000 C   0  0  0  0  0  0  0  0  0  0  0  0
    1.5000    0.0000    0.0000 C   0  0  0  0  0  0  0  0  0  0  0  0
    0.7500   -1.2990    0.0000 C   0  0  0  0  0  0  0  0  0  0  0  0
   -0.7500   -1.2990    0.0000 C   0  0  0  0  0  0  0  0  0  0  0  0
   -1.5000    0.0000    0.0000 N   0  0  0  0  0  0  0  0  0  0  0  0
   -3.0000    0.0000    0.0000 R   0  0  0  0  0  1  0  0  0  1  0  0
   -0.7500    1.2990    0.0000 C   0  0  0  0  0  0  0  0  0  0  0  0
    0.7500    1.2990    0.0000 C   0  0  0  0  0  0  0  0  0  0  0  0
    7.5000   -2.5981    0.0000 R   0  0  0  0  0  1  0  0  0  2  0  0
  1  2  2  0
  2  3  1  0
  3  4  1  0
  4  5  1  0
  5  6  1  0
  6  7  1  0
  7  8  1  0
  8  9  1  0
  9 10  1  0
  9 11  1  0
 11 12  1  0
  2 13  1  0
 12  6  1  0
M  END
>  <id>  (132) 
107b8bd5-886f-42a4-8ec0-696826644bcb

>  <Version>  (132) 
0

>  <Alias>  (132) 
PipOMeAcA

>  <Type>  (132) 
amino_acid

>  <Smiles>  (132) 
O=C(COCC1CCN([*:1])CC1)[*:2]

>  <ProtectedSmiles>  (132) 
O=C(O)COCC1CCN(C(=O)OCC2c3ccccc3-c3ccccc32)CC1

>  <CAS>  (132) 
2219379-94-7

>  <User>  (132) 
Sevan.habeshian@orbismedicines.com

>  <StereoComment>  (132) 
as drawn

>  <Name>  (132) 
N/A

>  <Code>  (132) 
PipOMeAcA

>  <AliasLowerCase>  (132) 
pipomeaca

>  <LatestVersion>  (132) 
0.0

>  <createdAt>  (132) 
2026-02-13T09:56:36.331Z

>  <updatedAt>  (132) 
2026-02-13T09:56:36.331Z

>  <NumRotatableBonds>  (132) 
4

>  <is_N_methyl>  (132) 
False

>  <is_a_methyl>  (132) 
False

>  <is_alpha_aa>  (132) 
False

>  <is_beta_aa>  (132) 
False

>  <is_S100_aa>  (132) 
False

>  <Murcko_SMILES>  (132) 
C1CCNCC1

$$$$

     RDKit          2D

 10  9  0  0  0  0  0  0  0  0999 V2000
    7.7942   -0.0000    0.0000 C   0  0  0  0  0  0  0  0  0  0  0  0
    6.4952    0.7500    0.0000 S   0  0  0  0  0  0  0  0  0  0  0  0
    5.1962   -0.0000    0.0000 C   0  0  0  0  0  0  0  0  0  0  0  0
    3.8971    0.7500    0.0000 C   0  0  0  0  0  0  0  0  0  0  0  0
    2.5981   -0.0000    0.0000 C   0  0  0  0  0  0  0  0  0  0  0  0
    1.2990    0.7500    0.0000 N   0  0  0  0  0  0  0  0  0  0  0  0
    0.0000    0.0000    0.0000 R   0  0  0  0  0  1  0  0  0  1  0  0
    2.5981   -1.5000    0.0000 C   0  0  0  0  0  0  0  0  0  0  0  0
    1.2990   -2.2500    0.0000 O   0  0  0  0  0  0  0  0  0  0  0  0
    3.8971   -2.2500    0.0000 R   0  0  0  0  0  1  0  0  0  2  0  0
  1  2  1  0
  2  3  1  0
  3  4  1  0
  5  4  1  1
  5  6  1  0
  6  7  1  0
  5  8  1  0
  8  9  2  0
  8 10  1  0
M  END
>  <id>  (133) 
bb866ccf-2451-454d-a763-338d2c0ba1a3

>  <Version>  (133) 
0

>  <Alias>  (133) 
Met

>  <Type>  (133) 
amino_acid

>  <Smiles>  (133) 
CSCC[C@H](N[*:1])C(=O)[*:2]

>  <ProtectedSmiles>  (133) 
CSCC[C@H](NC(=O)OCC1c2ccccc2-c2ccccc21)C(=O)O

>  <CAS>  (133) 
71989-28-1

>  <User>  (133) 
sevan.h

>  <StereoComment>  (133) 
as drawn

>  <Name>  (133) 
Fmoc-Methionine-OH

>  <Code>  (133) 
Met

>  <AliasLowerCase>  (133) 
met

>  <LatestVersion>  (133) 
0.0

>  <createdAt>  (133) 
2026-01-14T12:15:13.387Z

>  <updatedAt>  (133) 
2026-01-14T12:15:13.387Z

>  <NumRotatableBonds>  (133) 
5

>  <is_N_methyl>  (133) 
False

>  <is_a_methyl>  (133) 
False

>  <is_alpha_aa>  (133) 
True

>  <is_beta_aa>  (133) 
False

>  <is_S100_aa>  (133) 
False

>  <Murcko_SMILES>  (133) 


$$$$

     RDKit          2D

 11 10  0  0  0  0  0  0  0  0999 V2000
    7.7942   -0.0000    0.0000 C   0  0  0  0  0  0  0  0  0  0  0  0
    6.4952    0.7500    0.0000 C   0  0  0  0  0  0  0  0  0  0  0  0
    6.4952    2.2500    0.0000 C   0  0  0  0  0  0  0  0  0  0  0  0
    5.1962   -0.0000    0.0000 C   0  0  0  0  0  0  0  0  0  0  0  0
    3.8971    0.7500    0.0000 C   0  0  0  0  0  0  0  0  0  0  0  0
    2.5981   -0.0000    0.0000 C   0  0  0  0  0  0  0  0  0  0  0  0
    1.2990    0.7500    0.0000 N   0  0  0  0  0  0  0  0  0  0  0  0
    0.0000    0.0000    0.0000 R   0  0  0  0  0  1  0  0  0  1  0  0
    3.8971    2.2500    0.0000 C   0  0  0  0  0  0  0  0  0  0  0  0
    2.5981    3.0000    0.0000 O   0  0  0  0  0  0  0  0  0  0  0  0
    5.1962    3.0000    0.0000 R   0  0  0  0  0  1  0  0  0  2  0  0
  1  2  1  0
  2  3  1  0
  2  4  1  0
  5  4  1  6
  5  6  1  0
  6  7  1  0
  7  8  1  0
  5  9  1  0
  9 10  2  0
  9 11  1  0
M  END
>  <id>  (134) 
b4c723e8-7f8e-4ea1-ac4f-5c0f048a8eb7

>  <Version>  (134) 
0

>  <Alias>  (134) 
D-B2-hLeu

>  <Type>  (134) 
amino_acid

>  <Smiles>  (134) 
CC(C)C[C@H](CN[*:1])C(=O)[*:2]

>  <ProtectedSmiles>  (134) 
CC(C)C[C@H](CNC(=O)OCC1c2ccccc2-c2ccccc21)C(=O)O

>  <CAS>  (134) 
1018899-99-4

>  <User>  (134) 
alice.granger@orbismedicines.com

>  <StereoComment>  (134) 
as drawn

>  <Name>  (134) 
(R)-2-(Fmoc-aminomethyl)-4-methylpentanoic acid

>  <Code>  (134) 
D-B2-hLeu

>  <AliasLowerCase>  (134) 
d-b2-hleu

>  <LatestVersion>  (134) 
0.0

>  <createdAt>  (134) 
2026-03-11T10:37:04.552Z

>  <updatedAt>  (134) 
2026-03-11T10:37:04.552Z

>  <NumRotatableBonds>  (134) 
5

>  <is_N_methyl>  (134) 
False

>  <is_a_methyl>  (134) 
False

>  <is_alpha_aa>  (134) 
False

>  <is_beta_aa>  (134) 
True

>  <is_S100_aa>  (134) 
False

>  <Murcko_SMILES>  (134) 


$$$$

     RDKit          2D

 11 10  0  0  0  0  0  0  0  0999 V2000
    1.2990   -2.2500    0.0000 O   0  0  0  0  0  0  0  0  0  0  0  0
    2.5981   -1.5000    0.0000 C   0  0  0  0  0  0  0  0  0  0  0  0
    2.5981   -0.0000    0.0000 C   0  0  0  0  0  0  0  0  0  0  0  0
    3.8971    0.7500    0.0000 C   0  0  0  0  0  0  0  0  0  0  0  0
    5.1962   -0.0000    0.0000 C   0  0  0  0  0  0  0  0  0  0  0  0
    6.4952   -0.7500    0.0000 F   0  0  0  0  0  0  0  0  0  0  0  0
    5.9462    1.2990    0.0000 F   0  0  0  0  0  0  0  0  0  0  0  0
    4.4462   -1.2990    0.0000 F   0  0  0  0  0  0  0  0  0  0  0  0
    1.2990    0.7500    0.0000 N   0  0  0  0  0  0  0  0  0  0  0  0
    0.0000    0.0000    0.0000 R   0  0  0  0  0  1  0  0  0  1  0  0
    3.8971   -2.2500    0.0000 R   0  0  0  0  0  1  0  0  0  2  0  0
  1  2  2  0
  2  3  1  0
  3  4  1  6
  4  5  1  0
  5  6  1  0
  5  7  1  0
  5  8  1  0
  3  9  1  0
  9 10  1  0
  2 11  1  0
M  END
>  <id>  (135) 
1706a0e9-edb6-48f8-9e73-cc2c2f65d454

>  <Version>  (135) 
0

>  <Alias>  (135) 
D-Ala(CF3)

>  <Type>  (135) 
amino_acid

>  <Smiles>  (135) 
O=C([C@@H](CC(F)(F)F)N[*:1])[*:2]

>  <ProtectedSmiles>  (135) 
O=C(N[C@H](CC(F)(F)F)C(=O)O)OCC1c2ccccc2-c2ccccc21

>  <CAS>  (135) 
2044711-52-4

>  <User>  (135) 
marie.g

>  <StereoComment>  (135) 
as drawn

>  <Name>  (135) 
(R)-Fmoc-2-amino-4,4,4-trifluoro-butyric acid

>  <Code>  (135) 
D-Ala(CF3)

>  <AliasLowerCase>  (135) 
d-ala(cf3)

>  <LatestVersion>  (135) 
0.0

>  <createdAt>  (135) 
2026-01-14T11:34:03.833Z

>  <updatedAt>  (135) 
2026-01-14T11:34:03.833Z

>  <NumRotatableBonds>  (135) 
3

>  <is_N_methyl>  (135) 
False

>  <is_a_methyl>  (135) 
False

>  <is_alpha_aa>  (135) 
True

>  <is_beta_aa>  (135) 
False

>  <is_S100_aa>  (135) 
False

>  <Murcko_SMILES>  (135) 


$$$$

     RDKit          2D

 15 16  0  0  0  0  0  0  0  0999 V2000
   -0.7500   -6.4952    0.0000 O   0  0  0  0  0  0  0  0  0  0  0  0
    0.7500   -6.4952    0.0000 C   0  0  0  0  0  0  0  0  0  0  0  0
    1.5000   -5.1962    0.0000 C   0  0  0  0  0  0  0  0  0  0  0  0
    0.7500   -3.8971    0.0000 C   0  0  0  0  0  0  0  0  0  0  0  0
    1.5000   -2.5981    0.0000 C   0  0  0  0  0  0  0  0  0  0  0  0
    0.7500   -1.2990    0.0000 C   0  0  0  0  0  0  0  0  0  0  0  0
    1.5000    0.0000    0.0000 C   0  0  0  0  0  0  0  0  0  0  0  0
    0.7500    1.2990    0.0000 C   0  0  0  0  0  0  0  0  0  0  0  0
   -0.7500    1.2990    0.0000 C   0  0  0  0  0  0  0  0  0  0  0  0
   -1.5000    0.0000    0.0000 C   0  0  0  0  0  0  0  0  0  0  0  0
   -0.7500   -1.2990    0.0000 C   0  0  0  0  0  0  0  0  0  0  0  0
   -1.5000   -2.5981    0.0000 C   0  0  0  0  0  0  0  0  0  0  0  0
   -0.7500   -3.8971    0.0000 N   0  0  0  0  0  0  0  0  0  0  0  0
   -1.5000   -5.1962    0.0000 R   0  0  0  0  0  1  0  0  0  1  0  0
    1.5000   -7.7942    0.0000 R   0  0  0  0  0  1  0  0  0  2  0  0
  1  2  2  0
  2  3  1  0
  4  3  1  6
  4  5  1  0
  5  6  1  0
  6  7  2  0
  7  8  1  0
  8  9  2  0
  9 10  1  0
 10 11  2  0
 11 12  1  0
 12 13  1  0
 13 14  1  0
  2 15  1  0
 13  4  1  0
 11  6  1  0
M  END
>  <id>  (136) 
0c764514-ead3-4361-ad10-319995fd5271

>  <Version>  (136) 
0

>  <Alias>  (136) 
D-Thiq

>  <Type>  (136) 
amino_acid

>  <Smiles>  (136) 
O=C(C[C@H]1Cc2ccccc2CN1[*:1])[*:2]

>  <ProtectedSmiles>  (136) 
O=C(O)C[C@H]1Cc2ccccc2CN1C(=O)OCC1c2ccccc2-c2ccccc21

>  <CAS>  (136) 
332064-67-2

>  <User>  (136) 
mischa.s

>  <StereoComment>  (136) 
as drawn

>  <Name>  (136) 
2-[(3R)-2-{[(9H-fluoren-9-yl)methoxy]carbonyl}-1,2,3,4-tetrahydroisoquinolin-3-yl]acetic acid

>  <Code>  (136) 
D-Thiq

>  <AliasLowerCase>  (136) 
d-thiq

>  <LatestVersion>  (136) 
0.0

>  <createdAt>  (136) 
2026-01-14T11:37:48.314Z

>  <updatedAt>  (136) 
2026-01-14T11:37:48.314Z

>  <NumRotatableBonds>  (136) 
2

>  <is_N_methyl>  (136) 
False

>  <is_a_methyl>  (136) 
False

>  <is_alpha_aa>  (136) 
False

>  <is_beta_aa>  (136) 
True

>  <is_S100_aa>  (136) 
False

>  <Murcko_SMILES>  (136) 
c1ccc2c(c1)CCNC2

$$$$

     RDKit          2D

 18 19  0  0  0  0  0  0  0  0999 V2000
   -4.0667   -3.6527    0.0000 N   0  0  0  0  0  0  0  0  0  0  0  0
   -2.6401   -3.1891    0.0000 C   0  0  0  0  0  0  0  0  0  0  0  0
   -1.2135   -2.7256    0.0000 C   0  0  0  0  0  0  0  0  0  0  0  0
   -0.0000   -3.6073    0.0000 C   0  0  0  0  0  0  0  0  0  0  0  0
    1.2135   -2.7256    0.0000 N   0  0  0  0  0  0  0  0  0  0  0  0
    0.7500   -1.2990    0.0000 C   0  0  0  0  0  0  0  0  0  0  0  0
    1.5000    0.0000    0.0000 C   0  0  0  0  0  0  0  0  0  0  0  0
    0.7500    1.2990    0.0000 C   0  0  0  0  0  0  0  0  0  0  0  0
   -0.7500    1.2990    0.0000 C   0  0  0  0  0  0  0  0  0  0  0  0
   -1.5000    2.5981    0.0000 C   0  0  0  0  0  0  0  0  0  0  0  0
   -0.7500    3.8971    0.0000 C   0  0  0  0  0  0  0  0  0  0  0  0
    0.7500    3.8971    0.0000 N   0  0  0  0  0  0  0  0  0  0  0  0
    1.5000    5.1962    0.0000 R   0  0  0  0  0  1  0  0  0  1  0  0
   -1.5000    5.1962    0.0000 C   0  0  0  0  0  0  0  0  0  0  0  0
   -3.0000    5.1962    0.0000 O   0  0  0  0  0  0  0  0  0  0  0  0
   -0.7500    6.4952    0.0000 R   0  0  0  0  0  1  0  0  0  2  0  0
   -1.5000    0.0000    0.0000 C   0  0  0  0  0  0  0  0  0  0  0  0
   -0.7500   -1.2990    0.0000 C   0  0  0  0  0  0  0  0  0  0  0  0
  1  2  3  0
  2  3  1  0
  3  4  2  0
  4  5  1  0
  5  6  1  0
  6  7  2  0
  7  8  1  0
  8  9  2  0
  9 10  1  0
 11 10  1  6
 11 12  1  0
 12 13  1  0
 11 14  1  0
 14 15  2  0
 14 16  1  0
  9 17  1  0
 17 18  2  0
 18  3  1  0
 18  6  1  0
M  END
>  <id>  (137) 
cc177fac-220e-41c8-9d97-aedea1b9f9af

>  <Version>  (137) 
0

>  <Alias>  (137) 
(R)-3CN,5Ind-Ala

>  <Type>  (137) 
amino_acid

>  <Smiles>  (137) 
N#Cc1c[nH]c2ccc(C[C@@H](N[*:1])C(=O)[*:2])cc12

>  <ProtectedSmiles>  (137) 
N#Cc1c[nH]c2ccc(C[C@@H](NC(=O)OCC3c4ccccc4-c4ccccc43)C(=O)O)cc12

>  <CAS>  (137) 


>  <User>  (137) 
cs@orbismedicines.com

>  <StereoComment>  (137) 
as drawn

>  <Name>  (137) 
(R)-Fmoc-5-(3-cyano-indole)-Alanine

>  <Code>  (137) 
(S)-3CN,5Ind-Ala

>  <AliasLowerCase>  (137) 
(r)-3cn,5ind-ala

>  <LatestVersion>  (137) 
2.0

>  <createdAt>  (137) 
2026-02-19T11:23:24.203Z

>  <updatedAt>  (137) 
2026-02-21T10:49:40.283Z

>  <NumRotatableBonds>  (137) 
4

>  <is_N_methyl>  (137) 
False

>  <is_a_methyl>  (137) 
False

>  <is_alpha_aa>  (137) 
True

>  <is_beta_aa>  (137) 
False

>  <is_S100_aa>  (137) 
False

>  <Murcko_SMILES>  (137) 
c1ccc2[nH]ccc2c1

$$$$

     RDKit          2D

 18 19  0  0  0  0  0  0  0  0999 V2000
   -4.0667   -3.6527    0.0000 N   0  0  0  0  0  0  0  0  0  0  0  0
   -2.6401   -3.1891    0.0000 C   0  0  0  0  0  0  0  0  0  0  0  0
   -1.2135   -2.7256    0.0000 C   0  0  0  0  0  0  0  0  0  0  0  0
   -0.0000   -3.6073    0.0000 C   0  0  0  0  0  0  0  0  0  0  0  0
    1.2135   -2.7256    0.0000 N   0  0  0  0  0  0  0  0  0  0  0  0
    0.7500   -1.2990    0.0000 C   0  0  0  0  0  0  0  0  0  0  0  0
    1.5000    0.0000    0.0000 C   0  0  0  0  0  0  0  0  0  0  0  0
    0.7500    1.2990    0.0000 C   0  0  0  0  0  0  0  0  0  0  0  0
   -0.7500    1.2990    0.0000 C   0  0  0  0  0  0  0  0  0  0  0  0
   -1.5000    2.5981    0.0000 C   0  0  0  0  0  0  0  0  0  0  0  0
   -0.7500    3.8971    0.0000 C   0  0  0  0  0  0  0  0  0  0  0  0
    0.7500    3.8971    0.0000 N   0  0  0  0  0  0  0  0  0  0  0  0
    1.5000    5.1962    0.0000 R   0  0  0  0  0  1  0  0  0  1  0  0
   -1.5000    5.1962    0.0000 C   0  0  0  0  0  0  0  0  0  0  0  0
   -3.0000    5.1962    0.0000 O   0  0  0  0  0  0  0  0  0  0  0  0
   -0.7500    6.4952    0.0000 R   0  0  0  0  0  1  0  0  0  2  0  0
   -1.5000    0.0000    0.0000 C   0  0  0  0  0  0  0  0  0  0  0  0
   -0.7500   -1.2990    0.0000 C   0  0  0  0  0  0  0  0  0  0  0  0
  1  2  3  0
  2  3  1  0
  3  4  2  0
  4  5  1  0
  5  6  1  0
  6  7  2  0
  7  8  1  0
  8  9  2  0
  9 10  1  0
 11 10  1  6
 11 12  1  0
 12 13  1  0
 11 14  1  0
 14 15  2  0
 14 16  1  0
  9 17  1  0
 17 18  2  0
 18  3  1  0
 18  6  1  0
M  END
>  <id>  (138) 
cc177fac-220e-41c8-9d97-aedea1b9f9af

>  <Version>  (138) 
1

>  <Alias>  (138) 
(S)-3CN,5Ind-Ala

>  <Type>  (138) 
amino_acid

>  <Smiles>  (138) 
N#Cc1c[nH]c2ccc(C[C@@H](N[*:1])C(=O)[*:2])cc12

>  <ProtectedSmiles>  (138) 
N#Cc1c[nH]c2ccc(C[C@@H](NC(=O)OCC3c4ccccc4-c4ccccc43)C(=O)O)cc12

>  <CAS>  (138) 


>  <User>  (138) 
mlg@orbismedicines.com

>  <StereoComment>  (138) 
as drawn

>  <Name>  (138) 
(R)-Fmoc-5-(3-cyano-indole)-Alanine

>  <Code>  (138) 
(S)-3CN,5Ind-Ala

>  <AliasLowerCase>  (138) 
(s)-3cn,5ind-ala

>  <LatestVersion>  (138) 
nan

>  <createdAt>  (138) 
2026-02-19T11:23:24.203Z

>  <updatedAt>  (138) 
2026-02-19T11:23:24.203Z

>  <NumRotatableBonds>  (138) 
4

>  <is_N_methyl>  (138) 
False

>  <is_a_methyl>  (138) 
False

>  <is_alpha_aa>  (138) 
True

>  <is_beta_aa>  (138) 
False

>  <is_S100_aa>  (138) 
False

>  <Murcko_SMILES>  (138) 
c1ccc2[nH]ccc2c1

$$$$

     RDKit          2D

 18 19  0  0  0  0  0  0  0  0999 V2000
   -4.0667   -3.6527    0.0000 N   0  0  0  0  0  0  0  0  0  0  0  0
   -2.6401   -3.1891    0.0000 C   0  0  0  0  0  0  0  0  0  0  0  0
   -1.2135   -2.7256    0.0000 C   0  0  0  0  0  0  0  0  0  0  0  0
   -0.0000   -3.6073    0.0000 C   0  0  0  0  0  0  0  0  0  0  0  0
    1.2135   -2.7256    0.0000 N   0  0  0  0  0  0  0  0  0  0  0  0
    0.7500   -1.2990    0.0000 C   0  0  0  0  0  0  0  0  0  0  0  0
    1.5000    0.0000    0.0000 C   0  0  0  0  0  0  0  0  0  0  0  0
    0.7500    1.2990    0.0000 C   0  0  0  0  0  0  0  0  0  0  0  0
   -0.7500    1.2990    0.0000 C   0  0  0  0  0  0  0  0  0  0  0  0
   -1.5000    2.5981    0.0000 C   0  0  0  0  0  0  0  0  0  0  0  0
   -0.7500    3.8971    0.0000 C   0  0  0  0  0  0  0  0  0  0  0  0
    0.7500    3.8971    0.0000 N   0  0  0  0  0  0  0  0  0  0  0  0
    1.5000    5.1962    0.0000 R   0  0  0  0  0  1  0  0  0  1  0  0
   -1.5000    5.1962    0.0000 C   0  0  0  0  0  0  0  0  0  0  0  0
   -3.0000    5.1962    0.0000 O   0  0  0  0  0  0  0  0  0  0  0  0
   -0.7500    6.4952    0.0000 R   0  0  0  0  0  1  0  0  0  2  0  0
   -1.5000    0.0000    0.0000 C   0  0  0  0  0  0  0  0  0  0  0  0
   -0.7500   -1.2990    0.0000 C   0  0  0  0  0  0  0  0  0  0  0  0
  1  2  3  0
  2  3  1  0
  3  4  2  0
  4  5  1  0
  5  6  1  0
  6  7  2  0
  7  8  1  0
  8  9  2  0
  9 10  1  0
 11 10  1  6
 11 12  1  0
 12 13  1  0
 11 14  1  0
 14 15  2  0
 14 16  1  0
  9 17  1  0
 17 18  2  0
 18  3  1  0
 18  6  1  0
M  END
>  <id>  (139) 
cc177fac-220e-41c8-9d97-aedea1b9f9af

>  <Version>  (139) 
2

>  <Alias>  (139) 
(S)-3CN,5Ind-Ala_tmp

>  <Type>  (139) 
amino_acid

>  <Smiles>  (139) 
N#Cc1c[nH]c2ccc(C[C@@H](N[*:1])C(=O)[*:2])cc12

>  <ProtectedSmiles>  (139) 
N#Cc1c[nH]c2ccc(C[C@@H](NC(=O)OCC3c4ccccc4-c4ccccc43)C(=O)O)cc12

>  <CAS>  (139) 


>  <User>  (139) 
cs@orbismedicines.com

>  <StereoComment>  (139) 
as drawn

>  <Name>  (139) 
(R)-Fmoc-5-(3-cyano-indole)-Alanine

>  <Code>  (139) 
(S)-3CN,5Ind-Ala

>  <AliasLowerCase>  (139) 
(s)-3cn,5ind-ala_tmp

>  <LatestVersion>  (139) 
nan

>  <createdAt>  (139) 
2026-02-19T11:23:24.203Z

>  <updatedAt>  (139) 
2026-02-21T10:48:22.607Z

>  <NumRotatableBonds>  (139) 
4

>  <is_N_methyl>  (139) 
False

>  <is_a_methyl>  (139) 
False

>  <is_alpha_aa>  (139) 
True

>  <is_beta_aa>  (139) 
False

>  <is_S100_aa>  (139) 
False

>  <Murcko_SMILES>  (139) 
c1ccc2[nH]ccc2c1

$$$$

     RDKit          2D

 14 14  0  0  0  0  0  0  0  0999 V2000
    6.0000    0.0000    0.0000 O   0  0  0  0  0  0  0  0  0  0  0  0
    5.2500   -1.2990    0.0000 C   0  0  0  0  0  0  0  0  0  0  0  0
    3.7500   -1.2990    0.0000 C   0  0  0  0  0  0  0  0  0  0  0  0
    3.0000    0.0000    0.0000 C   0  0  0  0  0  0  0  0  0  0  0  0
    1.5000    0.0000    0.0000 C   0  0  0  0  0  0  0  0  0  0  0  0
    0.7500   -1.2990    0.0000 C   0  0  0  0  0  0  0  0  0  0  0  0
   -0.7500   -1.2990    0.0000 C   0  0  0  0  0  0  0  0  0  0  0  0
   -1.5000    0.0000    0.0000 C   0  0  0  0  0  0  0  0  0  0  0  0
   -3.0000    0.0000    0.0000 F   0  0  0  0  0  0  0  0  0  0  0  0
   -0.7500    1.2990    0.0000 C   0  0  0  0  0  0  0  0  0  0  0  0
    0.7500    1.2990    0.0000 C   0  0  0  0  0  0  0  0  0  0  0  0
    3.0000   -2.5981    0.0000 N   0  0  0  0  0  0  0  0  0  0  0  0
    3.7500   -3.8971    0.0000 R   0  0  0  0  0  1  0  0  0  1  0  0
    6.0000   -2.5981    0.0000 R   0  0  0  0  0  1  0  0  0  2  0  0
  1  2  2  0
  2  3  1  0
  3  4  1  1
  4  5  1  0
  5  6  2  0
  6  7  1  0
  7  8  2  0
  8  9  1  0
  8 10  1  0
 10 11  2  0
  3 12  1  0
 12 13  1  0
  2 14  1  0
 11  5  1  0
M  END
>  <id>  (140) 
cdd5c7d8-a6d4-4aab-aabc-4ac19983e27a

>  <Version>  (140) 
0

>  <Alias>  (140) 
4FPhe

>  <Type>  (140) 
amino_acid

>  <Smiles>  (140) 
O=C([C@H](Cc1ccc(F)cc1)N[*:1])[*:2]

>  <ProtectedSmiles>  (140) 
O=C(N[C@@H](Cc1ccc(F)cc1)C(=O)O)OCC1c2ccccc2-c2ccccc21

>  <CAS>  (140) 
169243-86-1

>  <User>  (140) 
sevan.h

>  <StereoComment>  (140) 
as drawn

>  <Name>  (140) 
(2S)-2-(9H-fluoren-9-ylmethoxycarbonylamino)-3-(4-fluorophenyl)propanoic acid

>  <Code>  (140) 
4FPhe

>  <AliasLowerCase>  (140) 
4fphe

>  <LatestVersion>  (140) 
0.0

>  <createdAt>  (140) 
2026-01-14T12:15:54.525Z

>  <updatedAt>  (140) 
2026-01-14T12:15:54.525Z

>  <NumRotatableBonds>  (140) 
4

>  <is_N_methyl>  (140) 
False

>  <is_a_methyl>  (140) 
False

>  <is_alpha_aa>  (140) 
True

>  <is_beta_aa>  (140) 
False

>  <is_S100_aa>  (140) 
False

>  <Murcko_SMILES>  (140) 
c1ccccc1

$$$$

     RDKit          2D

 12 12  0  0  0  0  0  0  0  0999 V2000
    5.7760    0.0000    0.0000 O   0  0  0  0  0  0  0  0  0  0  0  0
    5.0260   -1.2990    0.0000 C   0  0  0  0  0  0  0  0  0  0  0  0
    3.5260   -1.2990    0.0000 C   0  0  0  0  0  0  0  0  0  0  0  0
    2.7760    0.0000    0.0000 C   0  0  0  0  0  0  0  0  0  0  0  0
    1.2760    0.0000    0.0000 C   0  0  0  0  0  0  0  0  0  0  0  0
    0.3943    1.2135    0.0000 C   0  0  0  0  0  0  0  0  0  0  0  0
   -1.0323    0.7500    0.0000 C   0  0  0  0  0  0  0  0  0  0  0  0
   -1.0323   -0.7500    0.0000 C   0  0  0  0  0  0  0  0  0  0  0  0
    0.3943   -1.2135    0.0000 C   0  0  0  0  0  0  0  0  0  0  0  0
    2.7760   -2.5981    0.0000 N   0  0  0  0  0  0  0  0  0  0  0  0
    3.5260   -3.8971    0.0000 R   0  0  0  0  0  1  0  0  0  1  0  0
    5.7760   -2.5981    0.0000 R   0  0  0  0  0  1  0  0  0  2  0  0
  1  2  2  0
  2  3  1  0
  3  4  1  1
  4  5  1  0
  5  6  1  0
  6  7  1  0
  7  8  1  0
  8  9  1  0
  3 10  1  0
 10 11  1  0
  2 12  1  0
  9  5  1  0
M  END
>  <id>  (141) 
901ca075-ba01-4520-ba1d-8516199cf828

>  <Version>  (141) 
0

>  <Alias>  (141) 
cPentAla

>  <Type>  (141) 
amino_acid

>  <Smiles>  (141) 
O=C([C@H](CC1CCCC1)N[*:1])[*:2]

>  <ProtectedSmiles>  (141) 
O=C(N[C@@H](CC1CCCC1)C(=O)O)OCC1c2ccccc2-c2ccccc21

>  <CAS>  (141) 
371770-32-0

>  <User>  (141) 
sevan.h

>  <StereoComment>  (141) 
as drawn

>  <Name>  (141) 
Fmoc-L-cycpentAla-OH

>  <Code>  (141) 
cPentAla

>  <AliasLowerCase>  (141) 
cpentala

>  <LatestVersion>  (141) 
0.0

>  <createdAt>  (141) 
2026-01-14T12:15:01.963Z

>  <updatedAt>  (141) 
2026-01-14T12:15:01.963Z

>  <NumRotatableBonds>  (141) 
4

>  <is_N_methyl>  (141) 
False

>  <is_a_methyl>  (141) 
False

>  <is_alpha_aa>  (141) 
True

>  <is_beta_aa>  (141) 
False

>  <is_S100_aa>  (141) 
False

>  <Murcko_SMILES>  (141) 
C1CCCC1

$$$$

     RDKit          2D

 10 10  0  0  0  0  0  0  0  0999 V2000
    3.5260    1.2990    0.0000 O   0  0  0  0  0  0  0  0  0  0  0  0
    2.7760    0.0000    0.0000 C   0  0  0  0  0  0  0  0  0  0  0  0
    1.2760    0.0000    0.0000 C   0  0  0  0  0  0  0  0  0  0  0  0
    0.3943    1.2135    0.0000 C   0  0  0  0  0  0  0  0  0  0  0  0
   -1.0323    0.7500    0.0000 C   0  0  0  0  0  0  0  0  0  0  0  0
   -1.0323   -0.7500    0.0000 C   0  0  0  0  0  0  0  0  0  0  0  0
    0.3943   -1.2135    0.0000 C   0  0  0  0  0  0  0  0  0  0  0  0
    0.8578   -2.6401    0.0000 N   0  0  0  0  0  0  0  0  0  0  0  0
   -0.1459   -3.7548    0.0000 R   0  0  0  0  0  1  0  0  0  1  0  0
    3.5260   -1.2990    0.0000 R   0  0  0  0  0  1  0  0  0  2  0  0
  1  2  2  0
  3  2  1  6
  3  4  1  0
  4  5  1  0
  5  6  1  0
  6  7  1  0
  7  8  1  1
  8  9  1  0
  2 10  1  0
  7  3  1  0
M  END
>  <id>  (142) 
6e0f606a-95e5-4039-92ba-235be30a0b66

>  <Version>  (142) 
0

>  <Alias>  (142) 
S,S-ACP

>  <Type>  (142) 
amino_acid

>  <Smiles>  (142) 
O=C([C@H]1CCC[C@@H]1N[*:1])[*:2]

>  <ProtectedSmiles>  (142) 
O=C(N[C@H]1CCC[C@@H]1C(=O)O)OCC1c2ccccc2-c2ccccc21

>  <CAS>  (142) 
359586-64-4

>  <User>  (142) 
emile.b

>  <StereoComment>  (142) 
as drawn

>  <Name>  (142) 
(1S,2S)-2-((((9H-Fluoren-9-yl)methoxy)carbonyl)amino)cyclopentanecarboxylic acid

>  <Code>  (142) 
S,S-ACP

>  <AliasLowerCase>  (142) 
s,s-acp

>  <LatestVersion>  (142) 
0.0

>  <createdAt>  (142) 
2026-01-14T11:34:44.322Z

>  <updatedAt>  (142) 
2026-01-14T11:34:44.322Z

>  <NumRotatableBonds>  (142) 
2

>  <is_N_methyl>  (142) 
False

>  <is_a_methyl>  (142) 
False

>  <is_alpha_aa>  (142) 
False

>  <is_beta_aa>  (142) 
True

>  <is_S100_aa>  (142) 
False

>  <Murcko_SMILES>  (142) 
C1CCCC1

$$$$

     RDKit          2D

 10 10  0  0  0  0  0  0  0  0999 V2000
    1.7331    2.5095    0.0000 O   0  0  0  0  0  0  0  0  0  0  0  0
    2.1213    1.0607    0.0000 C   0  0  0  0  0  0  0  0  0  0  0  0
    1.0607    0.0000    0.0000 C   0  0  0  0  0  0  0  0  0  0  0  0
    2.1213   -1.0607    0.0000 N   0  0  0  0  0  0  0  0  0  0  0  0
    1.7331   -2.5095    0.0000 R   0  0  0  0  0  1  0  0  0  1  0  0
   -0.0000   -1.0607    0.0000 C   0  0  0  0  0  0  0  0  0  0  0  0
   -1.0607    0.0000    0.0000 C   0  0  0  0  0  0  0  0  0  0  0  0
   -2.5607    0.0000    0.0000 F   0  0  0  0  0  0  0  0  0  0  0  0
    0.0000    1.0607    0.0000 C   0  0  0  0  0  0  0  0  0  0  0  0
    3.5702    0.6724    0.0000 R   0  0  0  0  0  1  0  0  0  2  0  0
  1  2  2  0
  2  3  1  0
  3  4  1  1
  4  5  1  0
  3  6  1  0
  6  7  1  0
  7  8  1  6
  7  9  1  0
  2 10  1  0
  9  3  1  0
M  END
>  <id>  (143) 
6118add0-5ebd-4c56-8218-b662eb9994f1

>  <Version>  (143) 
0

>  <Alias>  (143) 
3FAC4C

>  <Type>  (143) 
amino_acid

>  <Smiles>  (143) 
O=C([C@]1(N[*:1])C[C@H](F)C1)[*:2]

>  <ProtectedSmiles>  (143) 
O=C(N[C@]1(C(=O)O)C[C@@H](F)C1)OCC1c2ccccc2-c2ccccc21

>  <CAS>  (143) 
2137066-14-7

>  <User>  (143) 
Sevan.habeshian@orbismedicines.com

>  <StereoComment>  (143) 
as drawn

>  <Name>  (143) 
N/A

>  <Code>  (143) 
3FAC4C

>  <AliasLowerCase>  (143) 
3fac4c

>  <LatestVersion>  (143) 
0.0

>  <createdAt>  (143) 
2026-02-13T09:56:35.394Z

>  <updatedAt>  (143) 
2026-02-13T09:56:35.394Z

>  <NumRotatableBonds>  (143) 
2

>  <is_N_methyl>  (143) 
False

>  <is_a_methyl>  (143) 
False

>  <is_alpha_aa>  (143) 
True

>  <is_beta_aa>  (143) 
False

>  <is_S100_aa>  (143) 
False

>  <Murcko_SMILES>  (143) 
C1CCC1

$$$$

     RDKit          2D

 10  9  0  0  0  0  0  0  0  0999 V2000
    7.7942   -0.0000    0.0000 C   0  0  0  0  0  0  0  0  0  0  0  0
    6.4952    0.7500    0.0000 O   0  0  0  0  0  0  0  0  0  0  0  0
    5.1962   -0.0000    0.0000 C   0  0  0  0  0  0  0  0  0  0  0  0
    3.8971    0.7500    0.0000 C   0  0  0  0  0  0  0  0  0  0  0  0
    2.5981   -0.0000    0.0000 C   0  0  0  0  0  0  0  0  0  0  0  0
    1.2990    0.7500    0.0000 N   0  0  0  0  0  0  0  0  0  0  0  0
    0.0000    0.0000    0.0000 R   0  0  0  0  0  1  0  0  0  1  0  0
    2.5981   -1.5000    0.0000 C   0  0  0  0  0  0  0  0  0  0  0  0
    1.2990   -2.2500    0.0000 O   0  0  0  0  0  0  0  0  0  0  0  0
    3.8971   -2.2500    0.0000 R   0  0  0  0  0  1  0  0  0  2  0  0
  1  2  1  0
  2  3  1  0
  3  4  1  0
  5  4  1  6
  5  6  1  0
  6  7  1  0
  5  8  1  0
  8  9  2  0
  8 10  1  0
M  END
>  <id>  (144) 
0d61900a-9085-492e-b950-c2de386fd0b3

>  <Version>  (144) 
0

>  <Alias>  (144) 
D-hSer(OMe)

>  <Type>  (144) 
amino_acid

>  <Smiles>  (144) 
COCC[C@@H](N[*:1])C(=O)[*:2]

>  <ProtectedSmiles>  (144) 
COCC[C@@H](NC(=O)OCC1c2ccccc2-c2ccccc21)C(=O)O

>  <CAS>  (144) 
1272755-48-2

>  <User>  (144) 
sevan.h

>  <StereoComment>  (144) 
as drawn

>  <Name>  (144) 
Fmoc-D-homoserine(O-Methyl)

>  <Code>  (144) 
D-hSer(OMe)

>  <AliasLowerCase>  (144) 
d-hser(ome)

>  <LatestVersion>  (144) 
0.0

>  <createdAt>  (144) 
2026-01-14T11:37:55.185Z

>  <updatedAt>  (144) 
2026-01-14T11:37:55.185Z

>  <NumRotatableBonds>  (144) 
5

>  <is_N_methyl>  (144) 
False

>  <is_a_methyl>  (144) 
False

>  <is_alpha_aa>  (144) 
True

>  <is_beta_aa>  (144) 
False

>  <is_S100_aa>  (144) 
False

>  <Murcko_SMILES>  (144) 


$$$$

     RDKit          2D

 13 13  0  0  0  0  0  0  0  0999 V2000
    2.3886    2.4414    0.0000 O   0  0  0  0  0  0  0  0  0  0  0  0
    2.6491    0.9642    0.0000 C   0  0  0  0  0  0  0  0  0  0  0  0
    1.5000    0.0000    0.0000 C   0  0  0  0  0  0  0  0  0  0  0  0
    2.6491   -0.9642    0.0000 N   0  0  0  0  0  0  0  0  0  0  0  0
    2.3886   -2.4414    0.0000 R   0  0  0  0  0  1  0  0  0  1  0  0
    0.7500   -1.2990    0.0000 C   0  0  0  0  0  0  0  0  0  0  0  0
   -0.7500   -1.2990    0.0000 C   0  0  0  0  0  0  0  0  0  0  0  0
   -1.5000    0.0000    0.0000 S   0  0  0  0  0  0  0  0  0  0  0  0
   -2.6491   -0.9642    0.0000 O   0  0  0  0  0  0  0  0  0  0  0  0
   -2.6491    0.9642    0.0000 O   0  0  0  0  0  0  0  0  0  0  0  0
   -0.7500    1.2990    0.0000 C   0  0  0  0  0  0  0  0  0  0  0  0
    0.7500    1.2990    0.0000 C   0  0  0  0  0  0  0  0  0  0  0  0
    4.0586    0.4512    0.0000 R   0  0  0  0  0  1  0  0  0  2  0  0
  1  2  2  0
  2  3  1  0
  3  4  1  0
  4  5  1  0
  3  6  1  0
  6  7  1  0
  7  8  1  0
  8  9  2  0
  8 10  2  0
  8 11  1  0
 11 12  1  0
  2 13  1  0
 12  3  1  0
M  END
>  <id>  (145) 
9e764bed-7923-4f7f-bf8b-d1cc0c6b5f57

>  <Version>  (145) 
0

>  <Alias>  (145) 
ThianeCA

>  <Type>  (145) 
amino_acid

>  <Smiles>  (145) 
O=C(C1(N[*:1])CCS(=O)(=O)CC1)[*:2]

>  <ProtectedSmiles>  (145) 
O=C(NC1(C(=O)O)CCS(=O)(=O)CC1)OCC1c2ccccc2-c2ccccc21

>  <CAS>  (145) 
369402-96-0

>  <User>  (145) 
Sevan.habeshian@orbismedicines.com

>  <StereoComment>  (145) 
as drawn

>  <Name>  (145) 
N/A

>  <Code>  (145) 
ThianeCA

>  <AliasLowerCase>  (145) 
thianeca

>  <LatestVersion>  (145) 
0.0

>  <createdAt>  (145) 
2026-02-13T09:56:36.343Z

>  <updatedAt>  (145) 
2026-02-13T09:56:36.343Z

>  <NumRotatableBonds>  (145) 
2

>  <is_N_methyl>  (145) 
False

>  <is_a_methyl>  (145) 
False

>  <is_alpha_aa>  (145) 
True

>  <is_beta_aa>  (145) 
False

>  <is_S100_aa>  (145) 
False

>  <Murcko_SMILES>  (145) 
O=S1(=O)CCCCC1

$$$$

     RDKit          2D

  9  8  0  0  0  0  0  0  0  0999 V2000
    5.1962   -0.0000    0.0000 C   0  0  0  0  0  0  0  0  0  0  0  0
    3.8971    0.7500    0.0000 C   0  0  0  0  0  0  0  0  0  0  0  0
    3.8971    2.2500    0.0000 O   0  0  0  0  0  0  0  0  0  0  0  0
    2.5981   -0.0000    0.0000 C   0  0  0  0  0  0  0  0  0  0  0  0
    1.2990    0.7500    0.0000 N   0  0  0  0  0  0  0  0  0  0  0  0
    0.0000    0.0000    0.0000 R   0  0  0  0  0  1  0  0  0  1  0  0
    2.5981   -1.5000    0.0000 C   0  0  0  0  0  0  0  0  0  0  0  0
    1.2990   -2.2500    0.0000 O   0  0  0  0  0  0  0  0  0  0  0  0
    3.8971   -2.2500    0.0000 R   0  0  0  0  0  1  0  0  0  2  0  0
  2  1  1  1
  2  3  1  0
  2  4  1  0
  4  5  1  6
  5  6  1  0
  4  7  1  0
  7  8  2  0
  7  9  1  0
M  END
>  <id>  (146) 
da8f035b-2512-4efc-817c-b4346b9a4789

>  <Version>  (146) 
0

>  <Alias>  (146) 
D-Thr_UP

>  <Type>  (146) 
amino_acid

>  <Smiles>  (146) 
C[C@H](O)[C@@H](N[*:1])C(=O)[*:2]

>  <ProtectedSmiles>  (146) 
C[C@H](O)[C@@H](NC(=O)OCC1c2ccccc2-c2ccccc21)C(=O)O

>  <CAS>  (146) 
157355-81-2

>  <User>  (146) 
Sevan.habeshian@orbismedicines.com

>  <StereoComment>  (146) 
as drawn

>  <Name>  (146) 
N/A

>  <Code>  (146) 
D-Thr_UP

>  <AliasLowerCase>  (146) 
d-thr_up

>  <LatestVersion>  (146) 
0.0

>  <createdAt>  (146) 
2026-02-13T09:56:35.492Z

>  <updatedAt>  (146) 
2026-02-13T09:56:35.492Z

>  <NumRotatableBonds>  (146) 
3

>  <is_N_methyl>  (146) 
False

>  <is_a_methyl>  (146) 
False

>  <is_alpha_aa>  (146) 
True

>  <is_beta_aa>  (146) 
False

>  <is_S100_aa>  (146) 
False

>  <Murcko_SMILES>  (146) 


$$$$

     RDKit          2D

  9  8  0  0  0  0  0  0  0  0999 V2000
    6.4952   -0.7500    0.0000 N   0  0  0  0  0  0  0  0  0  0  0  0
    5.1962   -0.0000    0.0000 C   0  0  0  0  0  0  0  0  0  0  0  0
    3.8971    0.7500    0.0000 C   0  0  0  0  0  0  0  0  0  0  0  0
    2.5981   -0.0000    0.0000 C   0  0  0  0  0  0  0  0  0  0  0  0
    1.2990    0.7500    0.0000 N   0  0  0  0  0  0  0  0  0  0  0  0
    0.0000    0.0000    0.0000 R   0  0  0  0  0  1  0  0  0  1  0  0
    2.5981   -1.5000    0.0000 C   0  0  0  0  0  0  0  0  0  0  0  0
    1.2990   -2.2500    0.0000 O   0  0  0  0  0  0  0  0  0  0  0  0
    3.8971   -2.2500    0.0000 R   0  0  0  0  0  1  0  0  0  2  0  0
  1  2  3  0
  2  3  1  0
  4  3  1  1
  4  5  1  0
  5  6  1  0
  4  7  1  0
  7  8  2  0
  7  9  1  0
M  END
>  <id>  (147) 
4938ba32-97ce-44f3-95fd-7319b5f96785

>  <Version>  (147) 
0

>  <Alias>  (147) 
AlaCN

>  <Type>  (147) 
amino_acid

>  <Smiles>  (147) 
N#CC[C@H](N[*:1])C(=O)[*:2]

>  <ProtectedSmiles>  (147) 
N#CC[C@H](NC(=O)OCC1c2ccccc2-c2ccccc21)C(=O)O

>  <CAS>  (147) 
127273-06-7

>  <User>  (147) 
sevan.h

>  <StereoComment>  (147) 
as drawn

>  <Name>  (147) 
Fmoc-beta-cyano-L-alanine

>  <Code>  (147) 
AlaCN

>  <AliasLowerCase>  (147) 
alacn

>  <LatestVersion>  (147) 
0.0

>  <createdAt>  (147) 
2026-01-14T12:15:22.585Z

>  <updatedAt>  (147) 
2026-01-14T12:15:22.585Z

>  <NumRotatableBonds>  (147) 
3

>  <is_N_methyl>  (147) 
False

>  <is_a_methyl>  (147) 
False

>  <is_alpha_aa>  (147) 
True

>  <is_beta_aa>  (147) 
False

>  <is_S100_aa>  (147) 
False

>  <Murcko_SMILES>  (147) 


$$$$

     RDKit          2D

 10  9  0  0  0  0  0  0  0  0999 V2000
    6.4952    0.7500    0.0000 C   0  0  0  0  0  0  0  0  0  0  0  0
    5.1962   -0.0000    0.0000 C   0  0  0  0  0  0  0  0  0  0  0  0
    5.1962   -1.5000    0.0000 C   0  0  0  0  0  0  0  0  0  0  0  0
    3.8971    0.7500    0.0000 C   0  0  0  0  0  0  0  0  0  0  0  0
    2.5981   -0.0000    0.0000 C   0  0  0  0  0  0  0  0  0  0  0  0
    1.2990    0.7500    0.0000 C   0  0  0  0  0  0  0  0  0  0  0  0
    1.2990    2.2500    0.0000 O   0  0  0  0  0  0  0  0  0  0  0  0
    0.0000    0.0000    0.0000 R   0  0  0  0  0  1  0  0  0  2  0  0
    3.8971    2.2500    0.0000 N   0  0  0  0  0  0  0  0  0  0  0  0
    5.1962    3.0000    0.0000 R   0  0  0  0  0  1  0  0  0  1  0  0
  1  2  1  0
  2  3  1  0
  2  4  1  0
  4  5  1  1
  5  6  1  0
  6  7  2  0
  6  8  1  0
  4  9  1  0
  9 10  1  0
M  END
>  <id>  (148) 
132552db-afc8-4a00-bdd2-9f417b7a5c70

>  <Version>  (148) 
0

>  <Alias>  (148) 
B-hVal

>  <Type>  (148) 
amino_acid

>  <Smiles>  (148) 
CC(C)[C@@H](CC(=O)[*:2])N[*:1]

>  <ProtectedSmiles>  (148) 
CC(C)[C@@H](CC(=O)O)NC(=O)OCC1c2ccccc2-c2ccccc21

>  <CAS>  (148) 
172695-33-9

>  <User>  (148) 
sevan.h

>  <StereoComment>  (148) 
as drawn

>  <Name>  (148) 
Fmoc-L-beta-homovaline

>  <Code>  (148) 
B-hVal

>  <AliasLowerCase>  (148) 
b-hval

>  <LatestVersion>  (148) 
0.0

>  <createdAt>  (148) 
2026-01-14T12:15:39.163Z

>  <updatedAt>  (148) 
2026-01-14T12:15:39.163Z

>  <NumRotatableBonds>  (148) 
4

>  <is_N_methyl>  (148) 
False

>  <is_a_methyl>  (148) 
False

>  <is_alpha_aa>  (148) 
False

>  <is_beta_aa>  (148) 
True

>  <is_S100_aa>  (148) 
False

>  <Murcko_SMILES>  (148) 


$$$$

     RDKit          2D

 15 16  0  0  0  0  0  0  0  0999 V2000
   -3.7500   -1.2990    0.0000 O   0  0  0  0  0  0  0  0  0  0  0  0
   -3.0000   -2.5981    0.0000 C   0  0  0  0  0  0  0  0  0  0  0  0
   -1.5000   -2.5981    0.0000 C   0  0  0  0  0  0  0  0  0  0  0  0
   -0.7500   -3.8971    0.0000 C   0  0  0  0  0  0  0  0  0  0  0  0
    0.7500   -3.8971    0.0000 C   0  0  0  0  0  0  0  0  0  0  0  0
    1.5000   -2.5981    0.0000 C   0  0  0  0  0  0  0  0  0  0  0  0
    3.0000   -2.5981    0.0000 N   0  0  0  0  0  0  0  0  0  0  0  0
    3.7500   -3.8971    0.0000 R   0  0  0  0  0  1  0  0  0  1  0  0
    0.7500   -1.2990    0.0000 C   0  0  0  0  0  0  0  0  0  0  0  0
    1.5000    0.0000    0.0000 C   0  0  0  0  0  0  0  0  0  0  0  0
    0.7500    1.2990    0.0000 C   0  0  0  0  0  0  0  0  0  0  0  0
   -0.7500    1.2990    0.0000 C   0  0  0  0  0  0  0  0  0  0  0  0
   -1.5000    0.0000    0.0000 C   0  0  0  0  0  0  0  0  0  0  0  0
   -0.7500   -1.2990    0.0000 C   0  0  0  0  0  0  0  0  0  0  0  0
   -3.7500   -3.8971    0.0000 R   0  0  0  0  0  1  0  0  0  2  0  0
  1  2  2  0
  2  3  1  0
  3  4  1  0
  4  5  1  0
  5  6  1  0
  6  7  1  0
  7  8  1  0
  6  9  1  0
  9 10  2  0
 10 11  1  0
 11 12  2  0
 12 13  1  0
 13 14  2  0
  2 15  1  0
 14  3  1  0
 14  9  1  0
M  END
>  <id>  (149) 
dc2c175f-f8c6-4820-926b-6c032298fd4c

>  <Version>  (149) 
0

>  <Alias>  (149) 
tetrahydro-Napht

>  <Type>  (149) 
amino_acid

>  <Smiles>  (149) 
O=C(C1CCC(N[*:1])c2ccccc21)[*:2]

>  <ProtectedSmiles>  (149) 
O=C(NC1CCC(C(=O)O)c2ccccc21)OCC1c2ccccc2-c2ccccc21

>  <CAS>  (149) 
1221792-81-9

>  <User>  (149) 
marie.g

>  <StereoComment>  (149) 
as drawn

>  <Name>  (149) 
4-({[(9H-fluoren-9-yl)methoxy]carbonyl}amino)-1,2,3,4-tetrahydronaphthalene-1-carboxylic acid

>  <Code>  (149) 
tetrahydro-Napht

>  <AliasLowerCase>  (149) 
tetrahydro-napht

>  <LatestVersion>  (149) 
0.0

>  <createdAt>  (149) 
2026-01-14T11:33:41.906Z

>  <updatedAt>  (149) 
2026-01-14T11:33:41.906Z

>  <NumRotatableBonds>  (149) 
2

>  <is_N_methyl>  (149) 
False

>  <is_a_methyl>  (149) 
False

>  <is_alpha_aa>  (149) 
False

>  <is_beta_aa>  (149) 
False

>  <is_S100_aa>  (149) 
False

>  <Murcko_SMILES>  (149) 
c1ccc2c(c1)CCCC2

$$$$

     RDKit          2D

 10  9  0  0  0  0  0  0  0  0999 V2000
    5.1962    3.0000    0.0000 C   0  0  0  0  0  0  0  0  0  0  0  0
    3.8971    2.2500    0.0000 O   0  0  0  0  0  0  0  0  0  0  0  0
    3.8971    0.7500    0.0000 C   0  0  0  0  0  0  0  0  0  0  0  0
    5.1962   -0.0000    0.0000 C   0  0  0  0  0  0  0  0  0  0  0  0
    2.5981   -0.0000    0.0000 C   0  0  0  0  0  0  0  0  0  0  0  0
    1.2990    0.7500    0.0000 N   0  0  0  0  0  0  0  0  0  0  0  0
    0.0000    0.0000    0.0000 R   0  0  0  0  0  1  0  0  0  1  0  0
    2.5981   -1.5000    0.0000 C   0  0  0  0  0  0  0  0  0  0  0  0
    1.2990   -2.2500    0.0000 O   0  0  0  0  0  0  0  0  0  0  0  0
    3.8971   -2.2500    0.0000 R   0  0  0  0  0  1  0  0  0  2  0  0
  1  2  1  0
  2  3  1  0
  3  4  1  1
  3  5  1  0
  5  6  1  6
  6  7  1  0
  5  8  1  0
  8  9  2  0
  8 10  1  0
M  END
>  <id>  (150) 
ebee75e3-6b29-41d1-9217-bb0186250b9f

>  <Version>  (150) 
0

>  <Alias>  (150) 
D-Thr(OMe)

>  <Type>  (150) 
amino_acid

>  <Smiles>  (150) 
CO[C@@H](C)[C@@H](N[*:1])C(=O)[*:2]

>  <ProtectedSmiles>  (150) 
CO[C@@H](C)[C@@H](NC(=O)OCC1c2ccccc2-c2ccccc21)C(=O)O

>  <CAS>  (150) 
1301706-86-4

>  <User>  (150) 
Sevan.habeshian@orbismedicines.com

>  <StereoComment>  (150) 
as drawn

>  <Name>  (150) 
N/A

>  <Code>  (150) 
D-Thr(OMe)

>  <AliasLowerCase>  (150) 
d-thr(ome)

>  <LatestVersion>  (150) 
0.0

>  <createdAt>  (150) 
2026-02-13T09:56:35.397Z

>  <updatedAt>  (150) 
2026-02-13T09:56:35.397Z

>  <NumRotatableBonds>  (150) 
4

>  <is_N_methyl>  (150) 
False

>  <is_a_methyl>  (150) 
False

>  <is_alpha_aa>  (150) 
True

>  <is_beta_aa>  (150) 
False

>  <is_S100_aa>  (150) 
False

>  <Murcko_SMILES>  (150) 


$$$$

     RDKit          2D

 10  9  0  0  0  0  0  0  0  0999 V2000
    7.7942   -0.0000    0.0000 C   0  0  0  0  0  0  0  0  0  0  0  0
    6.4952    0.7500    0.0000 C   0  0  0  0  0  0  0  0  0  0  0  0
    5.1962   -0.0000    0.0000 C   0  0  0  0  0  0  0  0  0  0  0  0
    3.8971    0.7500    0.0000 C   0  0  0  0  0  0  0  0  0  0  0  0
    2.5981   -0.0000    0.0000 C   0  0  0  0  0  0  0  0  0  0  0  0
    1.2990    0.7500    0.0000 N   0  0  0  0  0  0  0  0  0  0  0  0
    0.0000    0.0000    0.0000 R   0  0  0  0  0  1  0  0  0  1  0  0
    2.5981   -1.5000    0.0000 C   0  0  0  0  0  0  0  0  0  0  0  0
    1.2990   -2.2500    0.0000 O   0  0  0  0  0  0  0  0  0  0  0  0
    3.8971   -2.2500    0.0000 R   0  0  0  0  0  1  0  0  0  2  0  0
  1  2  1  0
  2  3  1  0
  3  4  1  0
  5  4  1  1
  5  6  1  0
  6  7  1  0
  5  8  1  0
  8  9  2  0
  8 10  1  0
M  END
>  <id>  (151) 
9f982d77-bb71-4f40-872b-59003e7566c2

>  <Version>  (151) 
0

>  <Alias>  (151) 
Nle

>  <Type>  (151) 
amino_acid

>  <Smiles>  (151) 
CCCC[C@H](N[*:1])C(=O)[*:2]

>  <ProtectedSmiles>  (151) 
CCCC[C@H](NC(=O)OCC1c2ccccc2-c2ccccc21)C(=O)O

>  <CAS>  (151) 
77284-32-3

>  <User>  (151) 
sevan.h

>  <StereoComment>  (151) 
as drawn

>  <Name>  (151) 
Fmoc-Nle-OH

>  <Code>  (151) 
Nle

>  <AliasLowerCase>  (151) 
nle

>  <LatestVersion>  (151) 
0.0

>  <createdAt>  (151) 
2026-01-14T12:17:32.552Z

>  <updatedAt>  (151) 
2026-01-14T12:17:32.552Z

>  <NumRotatableBonds>  (151) 
5

>  <is_N_methyl>  (151) 
False

>  <is_a_methyl>  (151) 
False

>  <is_alpha_aa>  (151) 
True

>  <is_beta_aa>  (151) 
False

>  <is_S100_aa>  (151) 
False

>  <Murcko_SMILES>  (151) 


$$$$

     RDKit          2D

 13 13  0  0  0  0  0  0  0  0999 V2000
    6.0000    0.0000    0.0000 O   0  0  0  0  0  0  0  0  0  0  0  0
    5.2500   -1.2990    0.0000 C   0  0  0  0  0  0  0  0  0  0  0  0
    3.7500   -1.2990    0.0000 C   0  0  0  0  0  0  0  0  0  0  0  0
    3.0000    0.0000    0.0000 C   0  0  0  0  0  0  0  0  0  0  0  0
    1.5000    0.0000    0.0000 C   0  0  0  0  0  0  0  0  0  0  0  0
    0.7500   -1.2990    0.0000 C   0  0  0  0  0  0  0  0  0  0  0  0
   -0.7500   -1.2990    0.0000 C   0  0  0  0  0  0  0  0  0  0  0  0
   -1.5000    0.0000    0.0000 C   0  0  0  0  0  0  0  0  0  0  0  0
   -0.7500    1.2990    0.0000 C   0  0  0  0  0  0  0  0  0  0  0  0
   -1.5000    2.5981    0.0000 N   0  0  0  0  0  0  0  0  0  0  0  0
   -0.7500    3.8971    0.0000 R   0  0  0  0  0  1  0  0  0  1  0  0
    0.7500    1.2990    0.0000 C   0  0  0  0  0  0  0  0  0  0  0  0
    6.0000   -2.5981    0.0000 R   0  0  0  0  0  1  0  0  0  2  0  0
  1  2  2  0
  2  3  1  0
  3  4  1  0
  4  5  1  0
  5  6  2  0
  6  7  1  0
  7  8  2  0
  8  9  1  0
  9 10  1  0
 10 11  1  0
  9 12  2  0
  2 13  1  0
 12  5  1  0
M  END
>  <id>  (152) 
94f7fc94-33c0-4372-8c29-dcd16adcab36

>  <Version>  (152) 
0

>  <Alias>  (152) 
3App

>  <Type>  (152) 
amino_acid

>  <Smiles>  (152) 
O=C(CCc1cccc(N[*:1])c1)[*:2]

>  <ProtectedSmiles>  (152) 
O=C(O)CCc1cccc(NC(=O)OCC2c3ccccc3-c3ccccc32)c1

>  <CAS>  (152) 
867382-41-0

>  <User>  (152) 
mischa.s

>  <StereoComment>  (152) 
as drawn

>  <Name>  (152) 
3-(Fmoc-3-aminophenyl)-propionic acid

>  <Code>  (152) 
3App

>  <AliasLowerCase>  (152) 
3app

>  <LatestVersion>  (152) 
0.0

>  <createdAt>  (152) 
2026-01-14T11:37:48.734Z

>  <updatedAt>  (152) 
2026-01-14T11:37:48.734Z

>  <NumRotatableBonds>  (152) 
4

>  <is_N_methyl>  (152) 
False

>  <is_a_methyl>  (152) 
False

>  <is_alpha_aa>  (152) 
False

>  <is_beta_aa>  (152) 
False

>  <is_S100_aa>  (152) 
False

>  <Murcko_SMILES>  (152) 
c1ccccc1

$$$$

     RDKit          2D

  8  7  0  0  0  0  0  0  0  0999 V2000
    5.1962   -0.0000    0.0000 C   0  0  0  0  0  0  0  0  0  0  0  0
    3.8971    0.7500    0.0000 C   0  0  0  0  0  0  0  0  0  0  0  0
    2.5981   -0.0000    0.0000 C   0  0  0  0  0  0  0  0  0  0  0  0
    1.2990    0.7500    0.0000 N   0  0  0  0  0  0  0  0  0  0  0  0
    0.0000    0.0000    0.0000 R   0  0  0  0  0  1  0  0  0  1  0  0
    2.5981   -1.5000    0.0000 C   0  0  0  0  0  0  0  0  0  0  0  0
    1.2990   -2.2500    0.0000 O   0  0  0  0  0  0  0  0  0  0  0  0
    3.8971   -2.2500    0.0000 R   0  0  0  0  0  1  0  0  0  2  0  0
  1  2  1  0
  3  2  1  6
  3  4  1  0
  4  5  1  0
  3  6  1  0
  6  7  2  0
  6  8  1  0
M  END
>  <id>  (153) 
302d94a1-01d8-4fd0-97fc-d6203733cf88

>  <Version>  (153) 
0

>  <Alias>  (153) 
D-Abu

>  <Type>  (153) 
amino_acid

>  <Smiles>  (153) 
CC[C@@H](N[*:1])C(=O)[*:2]

>  <ProtectedSmiles>  (153) 
CC[C@@H](NC(=O)OCC1c2ccccc2-c2ccccc21)C(=O)O

>  <CAS>  (153) 
170642-27-0

>  <User>  (153) 
sevan.h

>  <StereoComment>  (153) 
as drawn

>  <Name>  (153) 
Fmoc-D-Abu-OH

>  <Code>  (153) 
D-Abu

>  <AliasLowerCase>  (153) 
d-abu

>  <LatestVersion>  (153) 
0.0

>  <createdAt>  (153) 
2026-01-14T12:16:05.243Z

>  <updatedAt>  (153) 
2026-01-14T12:16:05.243Z

>  <NumRotatableBonds>  (153) 
3

>  <is_N_methyl>  (153) 
False

>  <is_a_methyl>  (153) 
False

>  <is_alpha_aa>  (153) 
True

>  <is_beta_aa>  (153) 
False

>  <is_S100_aa>  (153) 
False

>  <Murcko_SMILES>  (153) 


$$$$

     RDKit          2D

  9  9  0  0  0  0  0  0  0  0999 V2000
    2.5607   -2.5981    0.0000 O   0  0  0  0  0  0  0  0  0  0  0  0
    3.3107   -1.2990    0.0000 C   0  0  0  0  0  0  0  0  0  0  0  0
    2.5607    0.0000    0.0000 C   0  0  0  0  0  0  0  0  0  0  0  0
    1.0607    0.0000    0.0000 C   0  0  0  0  0  0  0  0  0  0  0  0
   -0.0000   -1.0607    0.0000 C   0  0  0  0  0  0  0  0  0  0  0  0
   -1.0607    0.0000    0.0000 N   0  0  0  0  0  0  0  0  0  0  0  0
   -2.5607    0.0000    0.0000 R   0  0  0  0  0  1  0  0  0  1  0  0
    0.0000    1.0607    0.0000 C   0  0  0  0  0  0  0  0  0  0  0  0
    4.8107   -1.2990    0.0000 R   0  0  0  0  0  1  0  0  0  2  0  0
  1  2  2  0
  2  3  1  0
  3  4  1  0
  4  5  1  0
  5  6  1  0
  6  7  1  0
  6  8  1  0
  2  9  1  0
  8  4  1  0
M  END
>  <id>  (154) 
5b274fd3-5e3a-4a8d-aa7e-21f233ec9684

>  <Version>  (154) 
0

>  <Alias>  (154) 
3AzetAc

>  <Type>  (154) 
amino_acid

>  <Smiles>  (154) 
O=C(CC1CN([*:1])C1)[*:2]

>  <ProtectedSmiles>  (154) 
O=C(O)CC1CN(C(=O)OCC2c3ccccc3-c3ccccc32)C1

>  <CAS>  (154) 
959236-89-6

>  <User>  (154) 
sevan.h

>  <StereoComment>  (154) 
as drawn

>  <Name>  (154) 
2-(1-{[(9H-fluoren-9-yl)methoxy]carbonyl}azetidin-3-yl)acetic acid

>  <Code>  (154) 
3AzetAc

>  <AliasLowerCase>  (154) 
3azetac

>  <LatestVersion>  (154) 
0.0

>  <createdAt>  (154) 
2026-01-14T11:38:08.391Z

>  <updatedAt>  (154) 
2026-01-14T11:38:08.391Z

>  <NumRotatableBonds>  (154) 
2

>  <is_N_methyl>  (154) 
False

>  <is_a_methyl>  (154) 
False

>  <is_alpha_aa>  (154) 
False

>  <is_beta_aa>  (154) 
False

>  <is_S100_aa>  (154) 
False

>  <Murcko_SMILES>  (154) 
C1CNC1

$$$$

     RDKit          2D

 13 13  0  0  0  0  0  0  0  0999 V2000
    3.0000   -2.5981    0.0000 O   0  0  0  0  0  0  0  0  0  0  0  0
    3.7500   -1.2990    0.0000 C   0  0  0  0  0  0  0  0  0  0  0  0
    3.0000    0.0000    0.0000 C   0  0  0  0  0  0  0  0  0  0  0  0
    3.7500    1.2990    0.0000 N   0  0  0  0  0  0  0  0  0  0  0  0
    5.2500    1.2990    0.0000 R   0  0  0  0  0  1  0  0  0  1  0  0
    1.5000    0.0000    0.0000 C   0  0  0  0  0  0  0  0  0  0  0  0
    0.7500   -1.2990    0.0000 C   0  0  0  0  0  0  0  0  0  0  0  0
   -0.7500   -1.2990    0.0000 C   0  0  0  0  0  0  0  0  0  0  0  0
   -1.5000    0.0000    0.0000 C   0  0  0  0  0  0  0  0  0  0  0  0
   -0.7500    1.2990    0.0000 C   0  0  0  0  0  0  0  0  0  0  0  0
   -1.5000    2.5981    0.0000 F   0  0  0  0  0  0  0  0  0  0  0  0
    0.7500    1.2990    0.0000 C   0  0  0  0  0  0  0  0  0  0  0  0
    5.2500   -1.2990    0.0000 R   0  0  0  0  0  1  0  0  0  2  0  0
  1  2  2  0
  2  3  1  0
  3  4  1  1
  4  5  1  0
  3  6  1  0
  6  7  2  0
  7  8  1  0
  8  9  2  0
  9 10  1  0
 10 11  1  0
 10 12  2  0
  2 13  1  0
 12  6  1  0
M  END
>  <id>  (155) 
20730ec9-b148-4b4a-8aec-f608418a1dcb

>  <Version>  (155) 
0

>  <Alias>  (155) 
(R)-2FPhg

>  <Type>  (155) 
amino_acid

>  <Smiles>  (155) 
O=C([C@H](N[*:1])c1cccc(F)c1)[*:2]

>  <ProtectedSmiles>  (155) 
O=C(N[C@@H](C(=O)O)c1cccc(F)c1)OCC1c2ccccc2-c2ccccc21

>  <CAS>  (155) 
1260608-92-1

>  <User>  (155) 
angelica.l

>  <StereoComment>  (155) 
as drawn

>  <Name>  (155) 
(2R)-2-({[(9H-fluoren-9-yl)methoxy]carbonyl}amino)-2-(3-fluorophenyl)acetic acid

>  <Code>  (155) 
(R)-2FPhg

>  <AliasLowerCase>  (155) 
(r)-2fphg

>  <LatestVersion>  (155) 
0.0

>  <createdAt>  (155) 
2026-01-14T11:36:07.989Z

>  <updatedAt>  (155) 
2026-01-14T11:36:07.989Z

>  <NumRotatableBonds>  (155) 
3

>  <is_N_methyl>  (155) 
False

>  <is_a_methyl>  (155) 
False

>  <is_alpha_aa>  (155) 
True

>  <is_beta_aa>  (155) 
False

>  <is_S100_aa>  (155) 
False

>  <Murcko_SMILES>  (155) 
c1ccccc1

$$$$

     RDKit          2D

 12 11  0  0  0  0  0  0  0  0999 V2000
    7.7942    1.5000    0.0000 C   0  0  0  0  0  0  0  0  0  0  0  0
    6.4952    0.7500    0.0000 S   0  0  0  0  0  0  0  0  0  0  0  0
    5.7452    2.0490    0.0000 O   0  0  0  0  0  0  0  0  0  0  0  0
    7.2452   -0.5490    0.0000 O   0  0  0  0  0  0  0  0  0  0  0  0
    5.1962   -0.0000    0.0000 C   0  0  0  0  0  0  0  0  0  0  0  0
    3.8971    0.7500    0.0000 C   0  0  0  0  0  0  0  0  0  0  0  0
    2.5981   -0.0000    0.0000 C   0  0  0  0  0  0  0  0  0  0  0  0
    1.2990    0.7500    0.0000 N   0  0  0  0  0  0  0  0  0  0  0  0
    0.0000    0.0000    0.0000 R   0  0  0  0  0  1  0  0  0  1  0  0
    2.5981   -1.5000    0.0000 C   0  0  0  0  0  0  0  0  0  0  0  0
    1.2990   -2.2500    0.0000 O   0  0  0  0  0  0  0  0  0  0  0  0
    3.8971   -2.2500    0.0000 R   0  0  0  0  0  1  0  0  0  2  0  0
  1  2  1  0
  2  3  2  0
  2  4  2  0
  2  5  1  0
  5  6  1  0
  7  6  1  1
  7  8  1  0
  8  9  1  0
  7 10  1  0
 10 11  2  0
 10 12  1  0
M  END
>  <id>  (156) 
bba6e5c5-3eda-490a-a870-e385495db4ad

>  <Version>  (156) 
0

>  <Alias>  (156) 
Met(O2)

>  <Type>  (156) 
amino_acid

>  <Smiles>  (156) 
CS(=O)(=O)CC[C@H](N[*:1])C(=O)[*:2]

>  <ProtectedSmiles>  (156) 
CS(=O)(=O)CC[C@H](NC(=O)OCC1c2ccccc2-c2ccccc21)C(=O)O

>  <CAS>  (156) 
163437-14-7

>  <User>  (156) 
sevan.h

>  <StereoComment>  (156) 
as drawn

>  <Name>  (156) 
 Fmoc-Met(O2)-OH

>  <Code>  (156) 
Met(O2)

>  <AliasLowerCase>  (156) 
met(o2)

>  <LatestVersion>  (156) 
0.0

>  <createdAt>  (156) 
2026-01-14T12:15:24.811Z

>  <updatedAt>  (156) 
2026-01-14T12:15:24.811Z

>  <NumRotatableBonds>  (156) 
5

>  <is_N_methyl>  (156) 
False

>  <is_a_methyl>  (156) 
False

>  <is_alpha_aa>  (156) 
True

>  <is_beta_aa>  (156) 
False

>  <is_S100_aa>  (156) 
False

>  <Murcko_SMILES>  (156) 


$$$$

     RDKit          2D

 15 15  0  0  0  0  0  0  0  0999 V2000
    6.0000    0.0000    0.0000 O   0  0  0  0  0  0  0  0  0  0  0  0
    5.2500   -1.2990    0.0000 C   0  0  0  0  0  0  0  0  0  0  0  0
    3.7500   -1.2990    0.0000 C   0  0  0  0  0  0  0  0  0  0  0  0
    3.0000    0.0000    0.0000 C   0  0  0  0  0  0  0  0  0  0  0  0
    1.5000    0.0000    0.0000 C   0  0  0  0  0  0  0  0  0  0  0  0
    0.7500   -1.2990    0.0000 C   0  0  0  0  0  0  0  0  0  0  0  0
   -0.7500   -1.2990    0.0000 C   0  0  0  0  0  0  0  0  0  0  0  0
   -1.5000    0.0000    0.0000 C   0  0  0  0  0  0  0  0  0  0  0  0
   -3.0000    0.0000    0.0000 O   0  0  0  0  0  0  0  0  0  0  0  0
   -0.7500    1.2990    0.0000 C   0  0  0  0  0  0  0  0  0  0  0  0
   -1.5000    2.5981    0.0000 I   0  0  0  0  0  0  0  0  0  0  0  0
    0.7500    1.2990    0.0000 C   0  0  0  0  0  0  0  0  0  0  0  0
    3.0000   -2.5981    0.0000 N   0  0  0  0  0  0  0  0  0  0  0  0
    3.7500   -3.8971    0.0000 R   0  0  0  0  0  1  0  0  0  1  0  0
    6.0000   -2.5981    0.0000 R   0  0  0  0  0  1  0  0  0  2  0  0
  1  2  2  0
  2  3  1  0
  3  4  1  6
  4  5  1  0
  5  6  2  0
  6  7  1  0
  7  8  2  0
  8  9  1  0
  8 10  1  0
 10 11  1  0
 10 12  2  0
  3 13  1  0
 13 14  1  0
  2 15  1  0
 12  5  1  0
M  END
>  <id>  (157) 
eccdad70-a5b6-4606-bd39-b6e6def44c6b

>  <Version>  (157) 
0

>  <Alias>  (157) 
3I-D-Tyr

>  <Type>  (157) 
amino_acid

>  <Smiles>  (157) 
O=C([C@@H](Cc1ccc(O)c(I)c1)N[*:1])[*:2]

>  <ProtectedSmiles>  (157) 
O=C(N[C@H](Cc1ccc(O)c(I)c1)C(=O)O)OCC1c2ccccc2-c2ccccc21

>  <CAS>  (157) 
244028-70-4

>  <User>  (157) 
alice.granger@orbismedicines.com

>  <StereoComment>  (157) 
as drawn

>  <Name>  (157) 
Fmoc-3-iodo-d-tyr-oh

>  <Code>  (157) 
3I-D-Tyr

>  <AliasLowerCase>  (157) 
3i-d-tyr

>  <LatestVersion>  (157) 
0.0

>  <createdAt>  (157) 
2026-03-11T10:37:04.546Z

>  <updatedAt>  (157) 
2026-03-11T10:37:04.546Z

>  <NumRotatableBonds>  (157) 
4

>  <is_N_methyl>  (157) 
False

>  <is_a_methyl>  (157) 
False

>  <is_alpha_aa>  (157) 
True

>  <is_beta_aa>  (157) 
False

>  <is_S100_aa>  (157) 
False

>  <Murcko_SMILES>  (157) 
c1ccccc1

$$$$

     RDKit          2D

 17 17  0  0  0  0  0  0  0  0999 V2000
    6.0000    0.0000    0.0000 O   0  0  0  0  0  0  0  0  0  0  0  0
    5.2500   -1.2990    0.0000 C   0  0  0  0  0  0  0  0  0  0  0  0
    3.7500   -1.2990    0.0000 C   0  0  0  0  0  0  0  0  0  0  0  0
    3.0000    0.0000    0.0000 C   0  0  0  0  0  0  0  0  0  0  0  0
    1.5000    0.0000    0.0000 C   0  0  0  0  0  0  0  0  0  0  0  0
    0.7500   -1.2990    0.0000 C   0  0  0  0  0  0  0  0  0  0  0  0
   -0.7500   -1.2990    0.0000 C   0  0  0  0  0  0  0  0  0  0  0  0
   -1.5000    0.0000    0.0000 C   0  0  0  0  0  0  0  0  0  0  0  0
   -0.7500    1.2990    0.0000 C   0  0  0  0  0  0  0  0  0  0  0  0
   -1.5000    2.5981    0.0000 C   0  0  0  0  0  0  0  0  0  0  0  0
   -2.2500    3.8971    0.0000 F   0  0  0  0  0  0  0  0  0  0  0  0
   -0.2010    3.3481    0.0000 F   0  0  0  0  0  0  0  0  0  0  0  0
   -2.7990    1.8481    0.0000 F   0  0  0  0  0  0  0  0  0  0  0  0
    0.7500    1.2990    0.0000 C   0  0  0  0  0  0  0  0  0  0  0  0
    3.0000   -2.5981    0.0000 N   0  0  0  0  0  0  0  0  0  0  0  0
    3.7500   -3.8971    0.0000 R   0  0  0  0  0  1  0  0  0  1  0  0
    6.0000   -2.5981    0.0000 R   0  0  0  0  0  1  0  0  0  2  0  0
  1  2  2  0
  2  3  1  0
  3  4  1  1
  4  5  1  0
  5  6  2  0
  6  7  1  0
  7  8  2  0
  8  9  1  0
  9 10  1  0
 10 11  1  0
 10 12  1  0
 10 13  1  0
  9 14  2  0
  3 15  1  0
 15 16  1  0
  2 17  1  0
 14  5  1  0
M  END
>  <id>  (158) 
bbd670de-cfe4-48ea-8f4e-2fd965ded737

>  <Version>  (158) 
0

>  <Alias>  (158) 
3CF3Phe

>  <Type>  (158) 
amino_acid

>  <Smiles>  (158) 
O=C([C@H](Cc1cccc(C(F)(F)F)c1)N[*:1])[*:2]

>  <ProtectedSmiles>  (158) 
O=C(N[C@@H](Cc1cccc(C(F)(F)F)c1)C(=O)O)OCC1c2ccccc2-c2ccccc21

>  <CAS>  (158) 
205526-27-8

>  <User>  (158) 
angelica.l

>  <StereoComment>  (158) 
as drawn

>  <Name>  (158) 
Fmoc-Phe(3-CF3)-OH

>  <Code>  (158) 
3CF3Phe

>  <AliasLowerCase>  (158) 
3cf3phe

>  <LatestVersion>  (158) 
0.0

>  <createdAt>  (158) 
2026-01-14T11:34:04.908Z

>  <updatedAt>  (158) 
2026-01-14T11:34:04.908Z

>  <NumRotatableBonds>  (158) 
4

>  <is_N_methyl>  (158) 
False

>  <is_a_methyl>  (158) 
False

>  <is_alpha_aa>  (158) 
True

>  <is_beta_aa>  (158) 
False

>  <is_S100_aa>  (158) 
False

>  <Murcko_SMILES>  (158) 
c1ccccc1

$$$$

     RDKit          2D

 13 13  0  0  0  0  0  0  0  0999 V2000
    6.0000    0.0000    0.0000 O   0  0  0  0  0  0  0  0  0  0  0  0
    5.2500   -1.2990    0.0000 C   0  0  0  0  0  0  0  0  0  0  0  0
    3.7500   -1.2990    0.0000 C   0  0  0  0  0  0  0  0  0  0  0  0
    3.0000    0.0000    0.0000 C   0  0  0  0  0  0  0  0  0  0  0  0
    3.7500    1.2990    0.0000 N   0  0  0  0  0  0  0  0  0  0  0  0
    5.2500    1.2990    0.0000 R   0  0  0  0  0  1  0  0  0  1  0  0
    1.5000    0.0000    0.0000 C   0  0  0  0  0  0  0  0  0  0  0  0
    0.7500   -1.2990    0.0000 C   0  0  0  0  0  0  0  0  0  0  0  0
   -0.7500   -1.2990    0.0000 C   0  0  0  0  0  0  0  0  0  0  0  0
   -1.5000    0.0000    0.0000 C   0  0  0  0  0  0  0  0  0  0  0  0
   -0.7500    1.2990    0.0000 C   0  0  0  0  0  0  0  0  0  0  0  0
    0.7500    1.2990    0.0000 C   0  0  0  0  0  0  0  0  0  0  0  0
    6.0000   -2.5981    0.0000 R   0  0  0  0  0  1  0  0  0  2  0  0
  1  2  2  0
  2  3  1  0
  4  3  1  6
  4  5  1  0
  5  6  1  0
  4  7  1  0
  7  8  2  0
  8  9  1  0
  9 10  2  0
 10 11  1  0
 11 12  2  0
  2 13  1  0
 12  7  1  0
M  END
>  <id>  (159) 
047b8c5a-a418-44a1-b4d1-98fa9c03d153

>  <Version>  (159) 
0

>  <Alias>  (159) 
D-BPhe

>  <Type>  (159) 
amino_acid

>  <Smiles>  (159) 
O=C(C[C@@H](N[*:1])c1ccccc1)[*:2]

>  <ProtectedSmiles>  (159) 
O=C(O)C[C@@H](NC(=O)OCC1c2ccccc2-c2ccccc21)c1ccccc1

>  <CAS>  (159) 
220498-02-2

>  <User>  (159) 
gontran.s

>  <StereoComment>  (159) 
as drawn

>  <Name>  (159) 
(R)-Fmoc-beta-Phe-OH

>  <Code>  (159) 
D-BPhe

>  <AliasLowerCase>  (159) 
d-bphe

>  <LatestVersion>  (159) 
0.0

>  <createdAt>  (159) 
2026-01-14T11:38:41.523Z

>  <updatedAt>  (159) 
2026-01-14T11:38:41.523Z

>  <NumRotatableBonds>  (159) 
4

>  <is_N_methyl>  (159) 
False

>  <is_a_methyl>  (159) 
False

>  <is_alpha_aa>  (159) 
False

>  <is_beta_aa>  (159) 
True

>  <is_S100_aa>  (159) 
False

>  <Murcko_SMILES>  (159) 
c1ccccc1

$$$$

     RDKit          2D

 12 12  0  0  0  0  0  0  0  0999 V2000
    3.7500    1.2990    0.0000 O   0  0  0  0  0  0  0  0  0  0  0  0
    3.0000    0.0000    0.0000 C   0  0  0  0  0  0  0  0  0  0  0  0
    1.5000    0.0000    0.0000 C   0  0  0  0  0  0  0  0  0  0  0  0
    0.7500   -1.2990    0.0000 C   0  0  0  0  0  0  0  0  0  0  0  0
   -0.7500   -1.2990    0.0000 S   0  0  0  0  0  0  0  0  0  0  0  0
   -0.4895   -2.7762    0.0000 O   0  0  0  0  0  0  0  0  0  0  0  0
   -2.1595   -1.8121    0.0000 O   0  0  0  0  0  0  0  0  0  0  0  0
   -1.5000    0.0000    0.0000 C   0  0  0  0  0  0  0  0  0  0  0  0
   -0.7500    1.2990    0.0000 C   0  0  0  0  0  0  0  0  0  0  0  0
    0.7500    1.2990    0.0000 N   0  0  0  0  0  0  0  0  0  0  0  0
    1.5000    2.5981    0.0000 R   0  0  0  0  0  1  0  0  0  1  0  0
    3.7500   -1.2990    0.0000 R   0  0  0  0  0  1  0  0  0  2  0  0
  1  2  2  0
  2  3  1  0
  3  4  1  0
  4  5  1  0
  5  6  2  0
  5  7  2  0
  5  8  1  0
  8  9  1  0
  9 10  1  0
 10 11  1  0
  2 12  1  0
 10  3  1  0
M  END
>  <id>  (160) 
8358e9f1-0465-4f36-a410-5f69a7615bb0

>  <Version>  (160) 
0

>  <Alias>  (160) 
Thiom3CA

>  <Type>  (160) 
amino_acid

>  <Smiles>  (160) 
O=C(C1CS(=O)(=O)CCN1[*:1])[*:2]

>  <ProtectedSmiles>  (160) 
O=C(O)C1CS(=O)(=O)CCN1C(=O)OCC1c2ccccc2-c2ccccc21

>  <CAS>  (160) 
2137447-97-1

>  <User>  (160) 
Sevan.habeshian@orbismedicines.com

>  <StereoComment>  (160) 
as drawn

>  <Name>  (160) 
N/A

>  <Code>  (160) 
Thiom3CA

>  <AliasLowerCase>  (160) 
thiom3ca

>  <LatestVersion>  (160) 
0.0

>  <createdAt>  (160) 
2026-02-13T09:56:35.394Z

>  <updatedAt>  (160) 
2026-02-13T09:56:35.394Z

>  <NumRotatableBonds>  (160) 
1

>  <is_N_methyl>  (160) 
False

>  <is_a_methyl>  (160) 
False

>  <is_alpha_aa>  (160) 
True

>  <is_beta_aa>  (160) 
False

>  <is_S100_aa>  (160) 
False

>  <Murcko_SMILES>  (160) 
O=S1(=O)CCNCC1

$$$$

     RDKit          2D

  8  7  0  0  0  0  0  0  0  0999 V2000
    1.2990   -2.2500    0.0000 O   0  0  0  0  0  0  0  0  0  0  0  0
    2.5981   -1.5000    0.0000 C   0  0  0  0  0  0  0  0  0  0  0  0
    2.5981   -0.0000    0.0000 C   0  0  0  0  0  0  0  0  0  0  0  0
    3.8971    0.7500    0.0000 C   0  0  0  0  0  0  0  0  0  0  0  0
    5.1962   -0.0000    0.0000 O   0  0  0  0  0  0  0  0  0  0  0  0
    1.2990    0.7500    0.0000 N   0  0  0  0  0  0  0  0  0  0  0  0
    0.0000    0.0000    0.0000 R   0  0  0  0  0  1  0  0  0  1  0  0
    3.8971   -2.2500    0.0000 R   0  0  0  0  0  1  0  0  0  2  0  0
  1  2  2  0
  2  3  1  0
  3  4  1  6
  4  5  1  0
  3  6  1  0
  6  7  1  0
  2  8  1  0
M  END
>  <id>  (161) 
02b7543e-f62b-4ac3-a693-aa8a9c3bbd43

>  <Version>  (161) 
0

>  <Alias>  (161) 
D-Ser(THP)

>  <Type>  (161) 
amino_acid

>  <Smiles>  (161) 
O=C([C@@H](CO)N[*:1])[*:2]

>  <ProtectedSmiles>  (161) 
O=C(N[C@H](COC1CCCCO1)C(=O)O)OCC1c2ccccc2-c2ccccc21

>  <CAS>  (161) 
2976357-57-8

>  <User>  (161) 
sevan.h

>  <StereoComment>  (161) 
as drawn

>  <Name>  (161) 
Fmoc-D-Ser(THP)-OH

>  <Code>  (161) 
D-Ser(THP)

>  <AliasLowerCase>  (161) 
d-ser(thp)

>  <LatestVersion>  (161) 
0.0

>  <createdAt>  (161) 
2026-01-14T11:37:46.529Z

>  <updatedAt>  (161) 
2026-01-14T11:37:46.529Z

>  <NumRotatableBonds>  (161) 
3

>  <is_N_methyl>  (161) 
False

>  <is_a_methyl>  (161) 
False

>  <is_alpha_aa>  (161) 
True

>  <is_beta_aa>  (161) 
False

>  <is_S100_aa>  (161) 
False

>  <Murcko_SMILES>  (161) 


$$$$

     RDKit          2D

 11 11  0  0  0  0  0  0  0  0999 V2000
    3.5260    1.2990    0.0000 O   0  0  0  0  0  0  0  0  0  0  0  0
    2.7760    0.0000    0.0000 C   0  0  0  0  0  0  0  0  0  0  0  0
    1.2760    0.0000    0.0000 C   0  0  0  0  0  0  0  0  0  0  0  0
    0.3943    1.2135    0.0000 N   0  0  0  0  0  0  0  0  0  0  0  0
   -1.0323    0.7500    0.0000 O   0  0  0  0  0  0  0  0  0  0  0  0
   -1.0323   -0.7500    0.0000 C   0  0  0  0  0  0  0  0  0  0  0  0
   -2.2458   -1.6317    0.0000 C   0  0  0  0  0  0  0  0  0  0  0  0
   -3.6161   -1.0216    0.0000 N   0  0  0  0  0  0  0  0  0  0  0  0
   -4.8297   -1.9033    0.0000 R   0  0  0  0  0  1  0  0  0  1  0  0
    0.3943   -1.2135    0.0000 C   0  0  0  0  0  0  0  0  0  0  0  0
    3.5260   -1.2990    0.0000 R   0  0  0  0  0  1  0  0  0  2  0  0
  1  2  2  0
  2  3  1  0
  3  4  2  0
  4  5  1  0
  5  6  1  0
  6  7  1  0
  7  8  1  0
  8  9  1  0
  6 10  1  0
  2 11  1  0
 10  3  1  0
M  END
>  <id>  (162) 
00104e5b-e6b1-4b88-b1ec-962a71b2b2db

>  <Version>  (162) 
0

>  <Alias>  (162) 
OxazMeCA

>  <Type>  (162) 
amino_acid

>  <Smiles>  (162) 
O=C(C1=NOC(CN[*:1])C1)[*:2]

>  <ProtectedSmiles>  (162) 
O=C(NCC1CC(C(=O)O)=NO1)OCC1c2ccccc2-c2ccccc21

>  <CAS>  (162) 
2649079-11-6

>  <User>  (162) 
Sevan.habeshian@orbismedicines.com

>  <StereoComment>  (162) 
as drawn

>  <Name>  (162) 
N/A

>  <Code>  (162) 
OxazMeCA

>  <AliasLowerCase>  (162) 
oxazmeca

>  <LatestVersion>  (162) 
0.0

>  <createdAt>  (162) 
2026-02-13T09:56:36.404Z

>  <updatedAt>  (162) 
2026-02-13T09:56:36.404Z

>  <NumRotatableBonds>  (162) 
3

>  <is_N_methyl>  (162) 
False

>  <is_a_methyl>  (162) 
False

>  <is_alpha_aa>  (162) 
False

>  <is_beta_aa>  (162) 
False

>  <is_S100_aa>  (162) 
False

>  <Murcko_SMILES>  (162) 
C1=NOCC1

$$$$

     RDKit          2D

  9  8  0  0  0  0  0  0  0  0999 V2000
    6.4952    0.7500    0.0000 C   0  0  0  0  0  0  0  0  0  0  0  0
    5.1962   -0.0000    0.0000 C   0  0  0  0  0  0  0  0  0  0  0  0
    3.8971    0.7500    0.0000 C   0  0  0  0  0  0  0  0  0  0  0  0
    2.5981   -0.0000    0.0000 C   0  0  0  0  0  0  0  0  0  0  0  0
    1.2990    0.7500    0.0000 N   0  0  0  0  0  0  0  0  0  0  0  0
    0.0000    0.0000    0.0000 R   0  0  0  0  0  1  0  0  0  1  0  0
    2.5981   -1.5000    0.0000 C   0  0  0  0  0  0  0  0  0  0  0  0
    1.2990   -2.2500    0.0000 O   0  0  0  0  0  0  0  0  0  0  0  0
    3.8971   -2.2500    0.0000 R   0  0  0  0  0  1  0  0  0  2  0  0
  1  2  1  0
  2  3  1  0
  4  3  1  1
  4  5  1  0
  5  6  1  0
  4  7  1  0
  7  8  2  0
  7  9  1  0
M  END
>  <id>  (163) 
25348712-1331-4290-b164-7d9a5796e2f1

>  <Version>  (163) 
0

>  <Alias>  (163) 
nVa

>  <Type>  (163) 
amino_acid

>  <Smiles>  (163) 
CCC[C@H](N[*:1])C(=O)[*:2]

>  <ProtectedSmiles>  (163) 
CCC[C@H](NC(=O)OCC1c2ccccc2-c2ccccc21)C(=O)O

>  <CAS>  (163) 
135112-28-6

>  <User>  (163) 
sevan.h

>  <StereoComment>  (163) 
as drawn

>  <Name>  (163) 
Fmoc-nVa-oh

>  <Code>  (163) 
nVa

>  <AliasLowerCase>  (163) 
nva

>  <LatestVersion>  (163) 
0.0

>  <createdAt>  (163) 
2026-01-14T12:17:15.650Z

>  <updatedAt>  (163) 
2026-01-14T12:17:15.650Z

>  <NumRotatableBonds>  (163) 
4

>  <is_N_methyl>  (163) 
False

>  <is_a_methyl>  (163) 
False

>  <is_alpha_aa>  (163) 
True

>  <is_beta_aa>  (163) 
False

>  <is_S100_aa>  (163) 
False

>  <Murcko_SMILES>  (163) 


$$$$

     RDKit          2D

  9  8  0  0  0  0  0  0  0  0999 V2000
    5.1962    4.5000    0.0000 C   0  0  0  0  0  0  0  0  0  0  0  0
    5.1962    3.0000    0.0000 C   0  0  0  0  0  0  0  0  0  0  0  0
    3.8971    2.2500    0.0000 C   0  0  0  0  0  0  0  0  0  0  0  0
    3.8971    0.7500    0.0000 N   0  0  0  0  0  0  0  0  0  0  0  0
    2.5981   -0.0000    0.0000 C   0  0  0  0  0  0  0  0  0  0  0  0
    1.2990    0.7500    0.0000 C   0  0  0  0  0  0  0  0  0  0  0  0
    1.2990    2.2500    0.0000 O   0  0  0  0  0  0  0  0  0  0  0  0
    0.0000    0.0000    0.0000 R   0  0  0  0  0  1  0  0  0  2  0  0
    5.1962   -0.0000    0.0000 R   0  0  0  0  0  1  0  0  0  1  0  0
  1  2  1  0
  2  3  1  0
  3  4  1  0
  4  5  1  0
  5  6  1  0
  6  7  2  0
  6  8  1  0
  4  9  1  0
M  END
>  <id>  (164) 
eae77f6c-b98d-496d-9e21-9d54f367b4be

>  <Version>  (164) 
0

>  <Alias>  (164) 
PrGly

>  <Type>  (164) 
amino_acid

>  <Smiles>  (164) 
CCCN(CC(=O)[*:2])[*:1]

>  <ProtectedSmiles>  (164) 
CCCN(CC(=O)O)C(=O)OCC1c2ccccc2-c2ccccc21

>  <CAS>  (164) 
1310680-42-2

>  <User>  (164) 
sevan.h

>  <StereoComment>  (164) 
as drawn

>  <Name>  (164) 
Fmoc-N-propyl-glycine

>  <Code>  (164) 
PrGly

>  <AliasLowerCase>  (164) 
prgly

>  <LatestVersion>  (164) 
0.0

>  <createdAt>  (164) 
2026-01-14T11:38:10.181Z

>  <updatedAt>  (164) 
2026-01-14T11:38:10.181Z

>  <NumRotatableBonds>  (164) 
4

>  <is_N_methyl>  (164) 
False

>  <is_a_methyl>  (164) 
False

>  <is_alpha_aa>  (164) 
True

>  <is_beta_aa>  (164) 
False

>  <is_S100_aa>  (164) 
False

>  <Murcko_SMILES>  (164) 


$$$$

     RDKit          2D

 15 15  0  0  0  0  0  0  0  0999 V2000
    1.5000   -2.5981    0.0000 O   0  0  0  0  0  0  0  0  0  0  0  0
    3.0000   -2.5981    0.0000 C   0  0  0  0  0  0  0  0  0  0  0  0
    3.7500   -1.2990    0.0000 C   0  0  0  0  0  0  0  0  0  0  0  0
    5.2500   -1.2990    0.0000 C   0  0  0  0  0  0  0  0  0  0  0  0
    6.0000   -2.5981    0.0000 N   0  0  0  0  0  0  0  0  0  0  0  0
    7.5000   -2.5981    0.0000 R   0  0  0  0  0  1  0  0  0  1  0  0
    3.0000    0.0000    0.0000 C   0  0  0  0  0  0  0  0  0  0  0  0
    1.5000    0.0000    0.0000 C   0  0  0  0  0  0  0  0  0  0  0  0
    0.7500   -1.2990    0.0000 C   0  0  0  0  0  0  0  0  0  0  0  0
   -0.7500   -1.2990    0.0000 C   0  0  0  0  0  0  0  0  0  0  0  0
   -1.5000    0.0000    0.0000 C   0  0  0  0  0  0  0  0  0  0  0  0
   -0.7500    1.2990    0.0000 C   0  0  0  0  0  0  0  0  0  0  0  0
   -1.5000    2.5981    0.0000 F   0  0  0  0  0  0  0  0  0  0  0  0
    0.7500    1.2990    0.0000 C   0  0  0  0  0  0  0  0  0  0  0  0
    3.7500   -3.8971    0.0000 R   0  0  0  0  0  1  0  0  0  2  0  0
  1  2  2  0
  2  3  1  0
  3  4  1  0
  4  5  1  0
  5  6  1  0
  3  7  1  0
  7  8  1  0
  8  9  2  0
  9 10  1  0
 10 11  2  0
 11 12  1  0
 12 13  1  0
 12 14  2  0
  2 15  1  0
 14  8  1  0
M  END
>  <id>  (165) 
a558dd78-aa2a-47d3-8b71-f0fe83ce4e1f

>  <Version>  (165) 
0

>  <Alias>  (165) 
rac-2-(3FPh)PA

>  <Type>  (165) 
amino_acid

>  <Smiles>  (165) 
O=C(C(CN[*:1])Cc1cccc(F)c1)[*:2]

>  <ProtectedSmiles>  (165) 
O=C(NCC(Cc1cccc(F)c1)C(=O)O)OCC1c2ccccc2-c2ccccc21

>  <CAS>  (165) 
1823724-86-2

>  <User>  (165) 
mischa.s

>  <StereoComment>  (165) 
as drawn

>  <Name>  (165) 
3-({[(9H-fluoren-9-yl)methoxy]carbonyl}amino)-2-[(3-fluorophenyl)methyl]propanoic acid

>  <Code>  (165) 
rac-2-(3FPh)PA

>  <AliasLowerCase>  (165) 
rac-2-(3fph)pa

>  <LatestVersion>  (165) 
0.0

>  <createdAt>  (165) 
2026-01-14T11:33:04.064Z

>  <updatedAt>  (165) 
2026-01-14T11:33:04.064Z

>  <NumRotatableBonds>  (165) 
5

>  <is_N_methyl>  (165) 
False

>  <is_a_methyl>  (165) 
False

>  <is_alpha_aa>  (165) 
False

>  <is_beta_aa>  (165) 
True

>  <is_S100_aa>  (165) 
False

>  <Murcko_SMILES>  (165) 
c1ccccc1

$$$$

     RDKit          2D

  9  8  0  0  0  0  0  0  0  0999 V2000
    5.1962   -0.0000    0.0000 C   0  0  0  0  0  0  0  0  0  0  0  0
    3.8971    0.7500    0.0000 C   0  0  0  0  0  0  0  0  0  0  0  0
    3.8971    2.2500    0.0000 O   0  0  0  0  0  0  0  0  0  0  0  0
    2.5981   -0.0000    0.0000 C   0  0  0  0  0  0  0  0  0  0  0  0
    1.2990    0.7500    0.0000 N   0  0  0  0  0  0  0  0  0  0  0  0
    0.0000    0.0000    0.0000 R   0  0  0  0  0  1  0  0  0  1  0  0
    2.5981   -1.5000    0.0000 C   0  0  0  0  0  0  0  0  0  0  0  0
    1.2990   -2.2500    0.0000 O   0  0  0  0  0  0  0  0  0  0  0  0
    3.8971   -2.2500    0.0000 R   0  0  0  0  0  1  0  0  0  2  0  0
  2  1  1  1
  2  3  1  0
  2  4  1  0
  4  5  1  6
  5  6  1  0
  4  7  1  0
  7  8  2  0
  7  9  1  0
M  END
>  <id>  (166) 
dd6584cb-91d6-447d-aed0-4ce03c053c3a

>  <Version>  (166) 
0

>  <Alias>  (166) 
D-Thr

>  <Type>  (166) 
amino_acid

>  <Smiles>  (166) 
C[C@H](O)[C@@H](N[*:1])C(=O)[*:2]

>  <ProtectedSmiles>  (166) 
C[C@H](OC(C)(C)C)[C@@H](NC(=O)OCC1c2ccccc2-c2ccccc21)C(=O)O

>  <CAS>  (166) 
138797-71-4

>  <User>  (166) 
sevan.h

>  <StereoComment>  (166) 
as drawn

>  <Name>  (166) 
(2R,3S)-3-tert-butoxy-2-(9H-fluoren-9-ylmethoxycarbonylamino)butanoic acid

>  <Code>  (166) 
D-Thr

>  <AliasLowerCase>  (166) 
d-thr

>  <LatestVersion>  (166) 
0.0

>  <createdAt>  (166) 
2026-01-14T12:17:11.305Z

>  <updatedAt>  (166) 
2026-01-14T12:17:11.305Z

>  <NumRotatableBonds>  (166) 
3

>  <is_N_methyl>  (166) 
False

>  <is_a_methyl>  (166) 
False

>  <is_alpha_aa>  (166) 
True

>  <is_beta_aa>  (166) 
False

>  <is_S100_aa>  (166) 
False

>  <Murcko_SMILES>  (166) 


$$$$

     RDKit          2D

  9  8  0  0  0  0  0  0  0  0999 V2000
    6.4952   -2.2500    0.0000 C   0  0  0  0  0  0  0  0  0  0  0  0
    5.1962   -1.5000    0.0000 C   0  0  0  0  0  0  0  0  0  0  0  0
    5.1962   -0.0000    0.0000 N   0  0  0  0  0  0  0  0  0  0  0  0
    3.8971    0.7500    0.0000 C   0  0  0  0  0  0  0  0  0  0  0  0
    2.5981   -0.0000    0.0000 C   0  0  0  0  0  0  0  0  0  0  0  0
    1.2990    0.7500    0.0000 C   0  0  0  0  0  0  0  0  0  0  0  0
    1.2990    2.2500    0.0000 O   0  0  0  0  0  0  0  0  0  0  0  0
    0.0000    0.0000    0.0000 R   0  0  0  0  0  1  0  0  0  2  0  0
    6.4952    0.7500    0.0000 R   0  0  0  0  0  1  0  0  0  1  0  0
  1  2  1  0
  2  3  1  0
  3  4  1  0
  4  5  1  0
  5  6  1  0
  6  7  2  0
  6  8  1  0
  3  9  1  0
M  END
>  <id>  (167) 
e6504faa-78d3-4110-822f-546a217969aa

>  <Version>  (167) 
0

>  <Alias>  (167) 
N-Et-BAla

>  <Type>  (167) 
amino_acid

>  <Smiles>  (167) 
CCN(CCC(=O)[*:2])[*:1]

>  <ProtectedSmiles>  (167) 
CCN(CCC(=O)O)C(=O)OCC1c2ccccc2-c2ccccc21

>  <CAS>  (167) 
172965-67-2

>  <User>  (167) 
angelica.l

>  <StereoComment>  (167) 
as drawn

>  <Name>  (167) 
3-[ethyl({[(9H-fluoren-9-yl)methoxy]carbonyl})amino]propanoic acid

>  <Code>  (167) 
N-Et-BAla

>  <AliasLowerCase>  (167) 
n-et-bala

>  <LatestVersion>  (167) 
0.0

>  <createdAt>  (167) 
2026-01-14T11:34:48.737Z

>  <updatedAt>  (167) 
2026-01-14T11:34:48.737Z

>  <NumRotatableBonds>  (167) 
4

>  <is_N_methyl>  (167) 
False

>  <is_a_methyl>  (167) 
False

>  <is_alpha_aa>  (167) 
False

>  <is_beta_aa>  (167) 
True

>  <is_S100_aa>  (167) 
False

>  <Murcko_SMILES>  (167) 


$$$$

     RDKit          2D

 14 14  0  0  0  0  0  0  0  0999 V2000
    3.7500   -1.2990    0.0000 C   0  0  0  0  0  0  0  0  0  0  0  0
    3.0000    0.0000    0.0000 C   0  0  0  0  0  0  0  0  0  0  0  0
    3.7500    1.2990    0.0000 C   0  0  0  0  0  0  0  0  0  0  0  0
    3.0000    2.5981    0.0000 O   0  0  0  0  0  0  0  0  0  0  0  0
    5.2500    1.2990    0.0000 R   0  0  0  0  0  1  0  0  0  2  0  0
    1.5000    0.0000    0.0000 C   0  0  0  0  0  0  0  0  0  0  0  0
    0.7500   -1.2990    0.0000 C   0  0  0  0  0  0  0  0  0  0  0  0
   -0.7500   -1.2990    0.0000 C   0  0  0  0  0  0  0  0  0  0  0  0
   -1.5000    0.0000    0.0000 C   0  0  0  0  0  0  0  0  0  0  0  0
   -3.0000    0.0000    0.0000 C   0  0  0  0  0  0  0  0  0  0  0  0
   -3.7500    1.2990    0.0000 N   0  0  0  0  0  0  0  0  0  0  0  0
   -5.2500    1.2990    0.0000 R   0  0  0  0  0  1  0  0  0  1  0  0
   -0.7500    1.2990    0.0000 C   0  0  0  0  0  0  0  0  0  0  0  0
    0.7500    1.2990    0.0000 C   0  0  0  0  0  0  0  0  0  0  0  0
  1  2  1  0
  2  3  1  0
  3  4  2  0
  3  5  1  0
  2  6  1  0
  6  7  2  0
  7  8  1  0
  8  9  2  0
  9 10  1  0
 10 11  1  0
 11 12  1  0
  9 13  1  0
 13 14  2  0
 14  6  1  0
M  END
>  <id>  (168) 
fc811ac9-018a-4156-831e-1fe6e1d4ce29

>  <Version>  (168) 
0

>  <Alias>  (168) 
4AMPPrOH

>  <Type>  (168) 
amino_acid

>  <Smiles>  (168) 
CC(C(=O)[*:2])c1ccc(CN[*:1])cc1

>  <ProtectedSmiles>  (168) 
CC(C(=O)O)c1ccc(CNC(=O)OCC2c3ccccc3-c3ccccc32)cc1

>  <CAS>  (168) 
2241142-26-5

>  <User>  (168) 
Sevan.habeshian@orbismedicines.com

>  <StereoComment>  (168) 
as drawn

>  <Name>  (168) 
N/A

>  <Code>  (168) 
4AMPPrOH

>  <AliasLowerCase>  (168) 
4ampproh

>  <LatestVersion>  (168) 
0.0

>  <createdAt>  (168) 
2026-02-13T09:56:35.501Z

>  <updatedAt>  (168) 
2026-02-13T09:56:35.501Z

>  <NumRotatableBonds>  (168) 
4

>  <is_N_methyl>  (168) 
False

>  <is_a_methyl>  (168) 
False

>  <is_alpha_aa>  (168) 
False

>  <is_beta_aa>  (168) 
False

>  <is_S100_aa>  (168) 
False

>  <Murcko_SMILES>  (168) 
c1ccccc1

$$$$

     RDKit          2D

  8  7  0  0  0  0  0  0  0  0999 V2000
    5.1962   -0.0000    0.0000 C   0  0  0  0  0  0  0  0  0  0  0  0
    3.8971    0.7500    0.0000 C   0  0  0  0  0  0  0  0  0  0  0  0
    2.5981   -0.0000    0.0000 C   0  0  0  0  0  0  0  0  0  0  0  0
    1.2990    0.7500    0.0000 C   0  0  0  0  0  0  0  0  0  0  0  0
    1.2990    2.2500    0.0000 O   0  0  0  0  0  0  0  0  0  0  0  0
    0.0000    0.0000    0.0000 R   0  0  0  0  0  1  0  0  0  2  0  0
    3.8971    2.2500    0.0000 N   0  0  0  0  0  0  0  0  0  0  0  0
    5.1962    3.0000    0.0000 R   0  0  0  0  0  1  0  0  0  1  0  0
  1  2  1  0
  2  3  1  0
  3  4  1  0
  4  5  2  0
  4  6  1  0
  2  7  1  0
  7  8  1  0
M  END
>  <id>  (169) 
5fcf92e8-a109-4a09-9905-f7dcb8342dcf

>  <Version>  (169) 
0

>  <Alias>  (169) 
rac-B-hAla

>  <Type>  (169) 
amino_acid

>  <Smiles>  (169) 
CC(CC(=O)[*:2])N[*:1]

>  <ProtectedSmiles>  (169) 
CC(CC(=O)O)NC(=O)OCC1c2ccccc2-c2ccccc21

>  <CAS>  (169) 
186320-18-3

>  <User>  (169) 
mischa.s

>  <StereoComment>  (169) 
as drawn

>  <Name>  (169) 
rac-B-hAla

>  <Code>  (169) 
rac-B-hAla

>  <AliasLowerCase>  (169) 
rac-b-hala

>  <LatestVersion>  (169) 
0.0

>  <createdAt>  (169) 
2026-01-14T11:36:26.917Z

>  <updatedAt>  (169) 
2026-01-14T11:36:26.917Z

>  <NumRotatableBonds>  (169) 
3

>  <is_N_methyl>  (169) 
False

>  <is_a_methyl>  (169) 
False

>  <is_alpha_aa>  (169) 
False

>  <is_beta_aa>  (169) 
True

>  <is_S100_aa>  (169) 
False

>  <Murcko_SMILES>  (169) 


$$$$

     RDKit          2D

  9  9  0  0  0  0  0  0  0  0999 V2000
    3.8204   -0.5209    0.0000 O   0  0  0  0  0  0  0  0  0  0  0  0
    3.3074    0.8886    0.0000 C   0  0  0  0  0  0  0  0  0  0  0  0
    1.8302    1.1491    0.0000 C   0  0  0  0  0  0  0  0  0  0  0  0
    0.8660    0.0000    0.0000 C   0  0  0  0  0  0  0  0  0  0  0  0
    1.8302   -1.1491    0.0000 N   0  0  0  0  0  0  0  0  0  0  0  0
    1.3172   -2.5586    0.0000 R   0  0  0  0  0  1  0  0  0  1  0  0
   -0.4330    0.7500    0.0000 C   0  0  0  0  0  0  0  0  0  0  0  0
   -0.4330   -0.7500    0.0000 C   0  0  0  0  0  0  0  0  0  0  0  0
    4.2716    2.0377    0.0000 R   0  0  0  0  0  1  0  0  0  2  0  0
  1  2  2  0
  2  3  1  0
  3  4  1  0
  4  5  1  0
  5  6  1  0
  4  7  1  0
  7  8  1  0
  2  9  1  0
  8  4  1  0
M  END
>  <id>  (170) 
f46aaa34-d939-4b4a-b8af-da294eb547b5

>  <Version>  (170) 
0

>  <Alias>  (170) 
CP-AcA

>  <Type>  (170) 
amino_acid

>  <Smiles>  (170) 
O=C(CC1(N[*:1])CC1)[*:2]

>  <ProtectedSmiles>  (170) 
O=C(O)CC1(NC(=O)OCC2c3ccccc3-c3ccccc32)CC1

>  <CAS>  (170) 
1219953-64-6

>  <User>  (170) 
Sevan.habeshian@orbismedicines.com

>  <StereoComment>  (170) 
as drawn

>  <Name>  (170) 
N/A

>  <Code>  (170) 
CP-AcA

>  <AliasLowerCase>  (170) 
cp-aca

>  <LatestVersion>  (170) 
0.0

>  <createdAt>  (170) 
2026-02-13T09:56:35.393Z

>  <updatedAt>  (170) 
2026-02-13T09:56:35.393Z

>  <NumRotatableBonds>  (170) 
3

>  <is_N_methyl>  (170) 
False

>  <is_a_methyl>  (170) 
False

>  <is_alpha_aa>  (170) 
False

>  <is_beta_aa>  (170) 
True

>  <is_S100_aa>  (170) 
False

>  <Murcko_SMILES>  (170) 
C1CC1

$$$$

     RDKit          2D

 13 13  0  0  0  0  0  0  0  0999 V2000
    6.0000    0.0000    0.0000 O   0  0  0  0  0  0  0  0  0  0  0  0
    5.2500   -1.2990    0.0000 C   0  0  0  0  0  0  0  0  0  0  0  0
    3.7500   -1.2990    0.0000 C   0  0  0  0  0  0  0  0  0  0  0  0
    3.0000    0.0000    0.0000 C   0  0  0  0  0  0  0  0  0  0  0  0
    1.5000    0.0000    0.0000 C   0  0  0  0  0  0  0  0  0  0  0  0
    0.7500   -1.2990    0.0000 C   0  0  0  0  0  0  0  0  0  0  0  0
   -0.7500   -1.2990    0.0000 C   0  0  0  0  0  0  0  0  0  0  0  0
   -1.5000    0.0000    0.0000 O   0  0  0  0  0  0  0  0  0  0  0  0
   -0.7500    1.2990    0.0000 C   0  0  0  0  0  0  0  0  0  0  0  0
    0.7500    1.2990    0.0000 C   0  0  0  0  0  0  0  0  0  0  0  0
    3.0000   -2.5981    0.0000 N   0  0  0  0  0  0  0  0  0  0  0  0
    3.7500   -3.8971    0.0000 R   0  0  0  0  0  1  0  0  0  1  0  0
    6.0000   -2.5981    0.0000 R   0  0  0  0  0  1  0  0  0  2  0  0
  1  2  2  0
  2  3  1  0
  3  4  1  0
  4  5  1  0
  5  6  1  0
  6  7  1  0
  7  8  1  0
  8  9  1  0
  9 10  1  0
  3 11  1  0
 11 12  1  0
  2 13  1  0
 10  5  1  0
M  END
>  <id>  (171) 
38d989e8-af64-4885-8d61-e2b280a2efe6

>  <Version>  (171) 
0

>  <Alias>  (171) 
rac4THPAla

>  <Type>  (171) 
amino_acid

>  <Smiles>  (171) 
O=C(C(CC1CCOCC1)N[*:1])[*:2]

>  <ProtectedSmiles>  (171) 
O=C(NC(CC1CCOCC1)C(=O)O)OCC1c2ccccc2-c2ccccc21

>  <CAS>  (171) 
494210-66-1

>  <User>  (171) 
Sevan.habeshian@orbismedicines.com

>  <StereoComment>  (171) 
as drawn

>  <Name>  (171) 
N/A

>  <Code>  (171) 
rac4THPAla

>  <AliasLowerCase>  (171) 
rac4thpala

>  <LatestVersion>  (171) 
0.0

>  <createdAt>  (171) 
2026-02-13T09:56:36.327Z

>  <updatedAt>  (171) 
2026-02-13T09:56:36.327Z

>  <NumRotatableBonds>  (171) 
4

>  <is_N_methyl>  (171) 
False

>  <is_a_methyl>  (171) 
False

>  <is_alpha_aa>  (171) 
True

>  <is_beta_aa>  (171) 
False

>  <is_S100_aa>  (171) 
False

>  <Murcko_SMILES>  (171) 
C1CCOCC1

$$$$

     RDKit          2D

 12 12  0  0  0  0  0  0  0  0999 V2000
    3.7500    1.2990    0.0000 O   0  0  0  0  0  0  0  0  0  0  0  0
    3.0000    0.0000    0.0000 C   0  0  0  0  0  0  0  0  0  0  0  0
    1.5000    0.0000    0.0000 C   0  0  0  0  0  0  0  0  0  0  0  0
    0.7500   -1.2990    0.0000 C   0  0  0  0  0  0  0  0  0  0  0  0
   -0.7500   -1.2990    0.0000 C   0  0  0  0  0  0  0  0  0  0  0  0
   -1.5000    0.0000    0.0000 C   0  0  0  0  0  0  0  0  0  0  0  0
   -0.7500    1.2990    0.0000 C   0  0  0  0  0  0  0  0  0  0  0  0
    0.7500    1.2990    0.0000 C   0  0  0  0  0  0  0  0  0  0  0  0
    1.5000    2.5981    0.0000 C   0  0  0  0  0  0  0  0  0  0  0  0
    3.0000    2.5981    0.0000 N   0  0  0  0  0  0  0  0  0  0  0  0
    3.7500    3.8971    0.0000 R   0  0  0  0  0  1  0  0  0  1  0  0
    3.7500   -1.2990    0.0000 R   0  0  0  0  0  1  0  0  0  2  0  0
  1  2  2  0
  2  3  1  0
  3  4  2  0
  4  5  1  0
  5  6  2  0
  6  7  1  0
  7  8  2  0
  8  9  1  0
  9 10  1  0
 10 11  1  0
  2 12  1  0
  8  3  1  0
M  END
>  <id>  (172) 
ec0042e3-05e6-4da3-ac17-5aefaf369714

>  <Version>  (172) 
0

>  <Alias>  (172) 
2AMBA

>  <Type>  (172) 
amino_acid

>  <Smiles>  (172) 
O=C(c1ccccc1CN[*:1])[*:2]

>  <ProtectedSmiles>  (172) 
O=C(NCc1ccccc1C(=O)O)OCC1c2ccccc2-c2ccccc21

>  <CAS>  (172) 
219640-94-5

>  <User>  (172) 
sevan.h

>  <StereoComment>  (172) 
as drawn

>  <Name>  (172) 
2-(Fmoc-aminomethyl)-benzoic acid

>  <Code>  (172) 
2AMBA

>  <AliasLowerCase>  (172) 
2amba

>  <LatestVersion>  (172) 
0.0

>  <createdAt>  (172) 
2026-01-14T12:15:30.288Z

>  <updatedAt>  (172) 
2026-01-14T12:15:30.288Z

>  <NumRotatableBonds>  (172) 
3

>  <is_N_methyl>  (172) 
False

>  <is_a_methyl>  (172) 
False

>  <is_alpha_aa>  (172) 
False

>  <is_beta_aa>  (172) 
False

>  <is_S100_aa>  (172) 
False

>  <Murcko_SMILES>  (172) 
c1ccccc1

$$$$

     RDKit          2D

  0  0  0  0  0  0  0  0  0  0999 V3000
M  V30 BEGIN CTAB
M  V30 COUNTS 11 11 0 0 0
M  V30 BEGIN ATOM
M  V30 1 O 3.750000 1.299038 0.000000 0
M  V30 2 C 3.000000 0.000000 0.000000 0
M  V30 3 C 1.500000 0.000000 0.000000 0
M  V30 4 C 0.750000 -1.299038 0.000000 0
M  V30 5 C -0.750000 -1.299038 0.000000 0
M  V30 6 C -1.500000 0.000000 0.000000 0
M  V30 7 C -0.750000 1.299038 0.000000 0
M  V30 8 C 0.750000 1.299038 0.000000 0
M  V30 9 N 1.500000 2.598076 0.000000 0
M  V30 10 "NOT [H]" 0.750000 3.897114 0.000000 1
M  V30 11 "NOT [H]" 3.750000 -1.299038 0.000000 2
M  V30 END ATOM
M  V30 BEGIN BOND
M  V30 1 2 1 2
M  V30 2 1 3 2 CFG=1
M  V30 3 1 3 4
M  V30 4 1 4 5
M  V30 5 1 5 6
M  V30 6 1 6 7
M  V30 7 1 7 8
M  V30 8 1 8 9 CFG=1
M  V30 9 1 9 10
M  V30 10 1 2 11
M  V30 11 1 8 3
M  V30 END BOND
M  V30 BEGIN COLLECTION
M  V30 MDLV30/STERAC1 ATOMS=(2 3 8)
M  V30 END COLLECTION
M  V30 END CTAB
M  END
>  <id>  (173) 
bacdeddc-3864-4fd8-b4cf-bc97931d175f

>  <Version>  (173) 
0

>  <Alias>  (173) 
c1,2ACH

>  <Type>  (173) 
amino_acid

>  <Smiles>  (173) 
O=C([C@H]1CCCC[C@H]1N[*:1])[*:2] |&1:2,7|

>  <ProtectedSmiles>  (173) 
O=C(N[C@@H]1CCCC[C@@H]1C(=O)O)OCC1c2ccccc2-c2ccccc21 |&1:3,8|

>  <CAS>  (173) 
194471-85-7

>  <User>  (173) 
sevan.h

>  <StereoComment>  (173) 
rac-cis

>  <Name>  (173) 
rac-(1S,2R)-2-(9H-fluoren-9-ylmethoxycarbonylamino)cyclohexanecarboxylic acid

>  <Code>  (173) 
c1,2ACH

>  <AliasLowerCase>  (173) 
c1,2ach

>  <LatestVersion>  (173) 
0.0

>  <createdAt>  (173) 
2026-01-14T12:16:24.161Z

>  <updatedAt>  (173) 
2026-01-14T12:16:24.161Z

>  <NumRotatableBonds>  (173) 
2

>  <is_N_methyl>  (173) 
False

>  <is_a_methyl>  (173) 
False

>  <is_alpha_aa>  (173) 
False

>  <is_beta_aa>  (173) 
True

>  <is_S100_aa>  (173) 
False

>  <Murcko_SMILES>  (173) 
C1CCCCC1 C1CCCCC1

$$$$

     RDKit          2D

 16 16  0  0  0  0  0  0  0  0999 V2000
    3.0000    0.0000    0.0000 C   0  0  0  0  0  0  0  0  0  0  0  0
    1.5000    0.0000    0.0000 C   0  0  0  0  0  0  0  0  0  0  0  0
    0.7500   -1.2990    0.0000 C   0  0  0  0  0  0  0  0  0  0  0  0
   -0.7500   -1.2990    0.0000 C   0  0  0  0  0  0  0  0  0  0  0  0
   -1.5000   -2.5981    0.0000 O   0  0  0  0  0  0  0  0  0  0  0  0
   -1.5000    0.0000    0.0000 C   0  0  0  0  0  0  0  0  0  0  0  0
   -0.7500    1.2990    0.0000 C   0  0  0  0  0  0  0  0  0  0  0  0
   -1.5000    2.5981    0.0000 C   0  0  0  0  0  0  0  0  0  0  0  0
    0.7500    1.2990    0.0000 C   0  0  0  0  0  0  0  0  0  0  0  0
    1.5000    2.5981    0.0000 C   0  0  0  0  0  0  0  0  0  0  0  0
    3.0000    2.5981    0.0000 C   0  0  0  0  0  0  0  0  0  0  0  0
    3.7500    1.2990    0.0000 N   0  0  0  0  0  0  0  0  0  0  0  0
    5.2500    1.2990    0.0000 R   0  0  0  0  0  1  0  0  0  1  0  0
    3.7500    3.8971    0.0000 C   0  0  0  0  0  0  0  0  0  0  0  0
    3.0000    5.1962    0.0000 O   0  0  0  0  0  0  0  0  0  0  0  0
    5.2500    3.8971    0.0000 R   0  0  0  0  0  1  0  0  0  2  0  0
  1  2  1  0
  2  3  2  0
  3  4  1  0
  4  5  1  0
  4  6  2  0
  6  7  1  0
  7  8  1  0
  7  9  2  0
  9 10  1  0
 11 10  1  6
 11 12  1  0
 12 13  1  0
 11 14  1  0
 14 15  2  0
 14 16  1  0
  9  2  1  0
M  END
>  <id>  (174) 
03466100-6433-4129-bcd7-ad8abe534bfc

>  <Version>  (174) 
0

>  <Alias>  (174) 
D-(2,6-diMe)Tyr

>  <Type>  (174) 
amino_acid

>  <Smiles>  (174) 
Cc1cc(O)cc(C)c1C[C@@H](N[*:1])C(=O)[*:2]

>  <ProtectedSmiles>  (174) 
Cc1cc(O)cc(C)c1C[C@@H](NC(=O)OCC1c2ccccc2-c2ccccc21)C(=O)O

>  <CAS>  (174) 
854300-32-6

>  <User>  (174) 
mischa.s

>  <StereoComment>  (174) 
as drawn

>  <Name>  (174) 
Fmoc-D-2,6-dimethyltyrosine

>  <Code>  (174) 
D-(2,6-diMe)Tyr

>  <AliasLowerCase>  (174) 
d-(2,6-dime)tyr

>  <LatestVersion>  (174) 
0.0

>  <createdAt>  (174) 
2026-01-14T11:33:23.807Z

>  <updatedAt>  (174) 
2026-01-14T11:33:23.807Z

>  <NumRotatableBonds>  (174) 
4

>  <is_N_methyl>  (174) 
False

>  <is_a_methyl>  (174) 
False

>  <is_alpha_aa>  (174) 
True

>  <is_beta_aa>  (174) 
False

>  <is_S100_aa>  (174) 
False

>  <Murcko_SMILES>  (174) 
c1ccccc1

$$$$

     RDKit          2D

 13 14  0  0  0  0  0  0  0  0999 V2000
    1.2990   -5.8573    0.0000 O   0  0  0  0  0  0  0  0  0  0  0  0
   -0.0000   -5.1073    0.0000 C   0  0  0  0  0  0  0  0  0  0  0  0
   -0.0000   -3.6073    0.0000 C   0  0  0  0  0  0  0  0  0  0  0  0
    1.2135   -2.7256    0.0000 C   0  0  0  0  0  0  0  0  0  0  0  0
    0.7500   -1.2990    0.0000 C   0  0  0  0  0  0  0  0  0  0  0  0
    1.5000    0.0000    0.0000 C   0  0  0  0  0  0  0  0  0  0  0  0
    0.7500    1.2990    0.0000 C   0  0  0  0  0  0  0  0  0  0  0  0
   -0.7500    1.2990    0.0000 C   0  0  0  0  0  0  0  0  0  0  0  0
   -1.5000    0.0000    0.0000 C   0  0  0  0  0  0  0  0  0  0  0  0
   -0.7500   -1.2990    0.0000 C   0  0  0  0  0  0  0  0  0  0  0  0
   -1.2135   -2.7256    0.0000 N   0  0  0  0  0  0  0  0  0  0  0  0
   -2.6401   -3.1891    0.0000 R   0  0  0  0  0  1  0  0  0  1  0  0
   -1.2990   -5.8573    0.0000 R   0  0  0  0  0  1  0  0  0  2  0  0
  1  2  2  0
  3  2  1  6
  3  4  1  0
  4  5  1  0
  5  6  1  0
  6  7  1  0
  7  8  1  0
  8  9  1  0
  9 10  1  0
 10 11  1  0
 11 12  1  0
  2 13  1  0
 11  3  1  0
 10  5  1  0
M  END
>  <id>  (175) 
c18dd3d2-7758-494c-a0f4-4d7efdd02dc7

>  <Version>  (175) 
0

>  <Alias>  (175) 
(2R,rac)Oic

>  <Type>  (175) 
amino_acid

>  <Smiles>  (175) 
O=C([C@H]1CC2CCCCC2N1[*:1])[*:2]

>  <ProtectedSmiles>  (175) 
O=C(O)[C@H]1CC2CCCCC2N1C(=O)OCC1c2ccccc2-c2ccccc21

>  <CAS>  (175) 
1217512-55-4

>  <User>  (175) 
mischa.s

>  <StereoComment>  (175) 
as drawn

>  <Name>  (175) 
(2R)-1-(((9H-Fluoren-9-yl)methoxy)carbonyl)octahydro-1h-indole-2-carboxylic acid

>  <Code>  (175) 
(2R,rac)Oic

>  <AliasLowerCase>  (175) 
(2r,rac)oic

>  <LatestVersion>  (175) 
0.0

>  <createdAt>  (175) 
2026-01-14T11:37:24.184Z

>  <updatedAt>  (175) 
2026-01-14T11:37:24.184Z

>  <NumRotatableBonds>  (175) 
1

>  <is_N_methyl>  (175) 
False

>  <is_a_methyl>  (175) 
False

>  <is_alpha_aa>  (175) 
True

>  <is_beta_aa>  (175) 
False

>  <is_S100_aa>  (175) 
False

>  <Murcko_SMILES>  (175) 
C1CCC2NCCC2C1

$$$$

     RDKit          2D

 12 12  0  0  0  0  0  0  0  0999 V2000
    3.7500    1.2990    0.0000 O   0  0  0  0  0  0  0  0  0  0  0  0
    3.0000    0.0000    0.0000 C   0  0  0  0  0  0  0  0  0  0  0  0
    1.5000    0.0000    0.0000 C   0  0  0  0  0  0  0  0  0  0  0  0
    0.7500   -1.2990    0.0000 C   0  0  0  0  0  0  0  0  0  0  0  0
   -0.7500   -1.2990    0.0000 C   0  0  0  0  0  0  0  0  0  0  0  0
   -1.5000    0.0000    0.0000 C   0  0  0  0  0  0  0  0  0  0  0  0
   -3.0000    0.0000    0.0000 C   0  0  0  0  0  0  0  0  0  0  0  0
   -3.7500    1.2990    0.0000 N   0  0  0  0  0  0  0  0  0  0  0  0
   -5.2500    1.2990    0.0000 R   0  0  0  0  0  1  0  0  0  1  0  0
   -0.7500    1.2990    0.0000 C   0  0  0  0  0  0  0  0  0  0  0  0
    0.7500    1.2990    0.0000 C   0  0  0  0  0  0  0  0  0  0  0  0
    3.7500   -1.2990    0.0000 R   0  0  0  0  0  1  0  0  0  2  0  0
  1  2  2  0
  2  3  1  0
  3  4  1  0
  4  5  1  0
  5  6  1  0
  6  7  1  0
  7  8  1  0
  8  9  1  0
  6 10  1  0
 10 11  1  0
  2 12  1  0
 11  3  1  0
M  END
>  <id>  (176) 
9f5265fa-61f4-4997-814d-8988b17ea711

>  <Version>  (176) 
0

>  <Alias>  (176) 
4-Amc

>  <Type>  (176) 
amino_acid

>  <Smiles>  (176) 
O=C(C1CCC(CN[*:1])CC1)[*:2]

>  <ProtectedSmiles>  (176) 
O=C(NCC1CCC(C(=O)O)CC1)OCC1c2ccccc2-c2ccccc21

>  <CAS>  (176) 
188715-40-4

>  <User>  (176) 
clement.gensous@orbismedicines.com

>  <StereoComment>  (176) 
as drawn

>  <Name>  (176) 
4-Amc

>  <Code>  (176) 
4-Amc

>  <AliasLowerCase>  (176) 
4-amc

>  <LatestVersion>  (176) 
0.0

>  <createdAt>  (176) 
2026-01-15T09:28:36.133Z

>  <updatedAt>  (176) 
2026-01-15T09:28:36.133Z

>  <NumRotatableBonds>  (176) 
3

>  <is_N_methyl>  (176) 
False

>  <is_a_methyl>  (176) 
False

>  <is_alpha_aa>  (176) 
False

>  <is_beta_aa>  (176) 
False

>  <is_S100_aa>  (176) 
False

>  <Murcko_SMILES>  (176) 
C1CCCCC1

$$$$

     RDKit          2D

 16 17  0  0  0  0  0  0  0  0999 V2000
   -5.4933   -4.1162    0.0000 O   0  0  0  0  0  0  0  0  0  0  0  0
   -4.3786   -5.1199    0.0000 C   0  0  0  0  0  0  0  0  0  0  0  0
   -2.9520   -4.6564    0.0000 C   0  0  0  0  0  0  0  0  0  0  0  0
   -2.6401   -3.1891    0.0000 C   0  0  0  0  0  0  0  0  0  0  0  0
   -1.2135   -2.7256    0.0000 C   0  0  0  0  0  0  0  0  0  0  0  0
   -0.0000   -3.6073    0.0000 C   0  0  0  0  0  0  0  0  0  0  0  0
    1.2135   -2.7256    0.0000 N   0  0  0  0  0  0  0  0  0  0  0  0
    0.7500   -1.2990    0.0000 C   0  0  0  0  0  0  0  0  0  0  0  0
    1.5000    0.0000    0.0000 N   0  0  0  0  0  0  0  0  0  0  0  0
    0.7500    1.2990    0.0000 C   0  0  0  0  0  0  0  0  0  0  0  0
   -0.7500    1.2990    0.0000 C   0  0  0  0  0  0  0  0  0  0  0  0
   -1.5000    0.0000    0.0000 C   0  0  0  0  0  0  0  0  0  0  0  0
   -0.7500   -1.2990    0.0000 C   0  0  0  0  0  0  0  0  0  0  0  0
   -1.8373   -5.6601    0.0000 N   0  0  0  0  0  0  0  0  0  0  0  0
   -2.1491   -7.1273    0.0000 R   0  0  0  0  0  1  0  0  0  1  0  0
   -4.6904   -6.5871    0.0000 R   0  0  0  0  0  1  0  0  0  2  0  0
  1  2  2  0
  2  3  1  0
  3  4  1  6
  4  5  1  0
  5  6  2  0
  6  7  1  0
  7  8  1  0
  8  9  2  0
  9 10  1  0
 10 11  2  0
 11 12  1  0
 12 13  2  0
  3 14  1  0
 14 15  1  0
  2 16  1  0
 13  5  1  0
 13  8  1  0
M  END
>  <id>  (177) 
19751ec5-7c23-425c-83cb-c4d277ce8c50

>  <Version>  (177) 
0

>  <Alias>  (177) 
7-azaTrp

>  <Type>  (177) 
amino_acid

>  <Smiles>  (177) 
O=C([C@H](Cc1c[nH]c2ncccc12)N[*:1])[*:2]

>  <ProtectedSmiles>  (177) 
O=C(N[C@@H](Cc1c[nH]c2ncccc12)C(=O)O)OCC1c2ccccc2-c2ccccc21

>  <CAS>  (177) 
737007-45-3

>  <User>  (177) 
sevan.h

>  <StereoComment>  (177) 
as drawn

>  <Name>  (177) 
Fmoc-7-aza-Trp-OH

>  <Code>  (177) 
7-azaTrp

>  <AliasLowerCase>  (177) 
7-azatrp

>  <LatestVersion>  (177) 
0.0

>  <createdAt>  (177) 
2026-01-14T11:38:23.582Z

>  <updatedAt>  (177) 
2026-01-14T11:38:23.582Z

>  <NumRotatableBonds>  (177) 
4

>  <is_N_methyl>  (177) 
False

>  <is_a_methyl>  (177) 
False

>  <is_alpha_aa>  (177) 
True

>  <is_beta_aa>  (177) 
False

>  <is_S100_aa>  (177) 
False

>  <Murcko_SMILES>  (177) 
c1cnc2[nH]ccc2c1

$$$$

     RDKit          2D

 16 17  0  0  0  0  0  0  0  0999 V2000
    1.7725   -8.3730    0.0000 O   0  0  0  0  0  0  0  0  0  0  0  0
    0.4022   -7.7629    0.0000 C   0  0  0  0  0  0  0  0  0  0  0  0
    0.2454   -6.2711    0.0000 C   0  0  0  0  0  0  0  0  0  0  0  0
    1.3601   -5.2674    0.0000 C   0  0  0  0  0  0  0  0  0  0  0  0
    0.7500   -3.8971    0.0000 C   0  0  0  0  0  0  0  0  0  0  0  0
    1.5000   -2.5981    0.0000 O   0  0  0  0  0  0  0  0  0  0  0  0
    0.7500   -1.2990    0.0000 C   0  0  0  0  0  0  0  0  0  0  0  0
    1.5000    0.0000    0.0000 C   0  0  0  0  0  0  0  0  0  0  0  0
    0.7500    1.2990    0.0000 C   0  0  0  0  0  0  0  0  0  0  0  0
   -0.7500    1.2990    0.0000 C   0  0  0  0  0  0  0  0  0  0  0  0
   -1.5000    0.0000    0.0000 C   0  0  0  0  0  0  0  0  0  0  0  0
   -0.7500   -1.2990    0.0000 C   0  0  0  0  0  0  0  0  0  0  0  0
   -0.7418   -4.0539    0.0000 C   0  0  0  0  0  0  0  0  0  0  0  0
   -1.0537   -5.5211    0.0000 N   0  0  0  0  0  0  0  0  0  0  0  0
   -2.4240   -6.1312    0.0000 R   0  0  0  0  0  1  0  0  0  1  0  0
   -0.8113   -8.6446    0.0000 R   0  0  0  0  0  1  0  0  0  2  0  0
  1  2  2  0
  3  2  1  1
  3  4  1  0
  4  5  1  0
  5  6  1  6
  6  7  1  0
  7  8  2  0
  8  9  1  0
  9 10  2  0
 10 11  1  0
 11 12  2  0
  5 13  1  0
 13 14  1  0
 14 15  1  0
  2 16  1  0
 14  3  1  0
 12  7  1  0
M  END
>  <id>  (178) 
1548057b-bb51-4f27-9ff4-3c287ae0b0f5

>  <Version>  (178) 
0

>  <Alias>  (178) 
Hyp(OPh)

>  <Type>  (178) 
amino_acid

>  <Smiles>  (178) 
O=C([C@@H]1C[C@@H](Oc2ccccc2)CN1[*:1])[*:2]

>  <ProtectedSmiles>  (178) 
O=C(O)[C@@H]1C[C@@H](Oc2ccccc2)CN1C(=O)OCC1c2ccccc2-c2ccccc21

>  <CAS>  (178) 
1313390-76-9

>  <User>  (178) 
sevan.h

>  <StereoComment>  (178) 
as drawn

>  <Name>  (178) 
Fmoc-Hyp(OPh)-OH

>  <Code>  (178) 
Hyp(OPh)

>  <AliasLowerCase>  (178) 
hyp(oph)

>  <LatestVersion>  (178) 
0.0

>  <createdAt>  (178) 
2026-01-14T12:15:47.284Z

>  <updatedAt>  (178) 
2026-01-14T12:15:47.284Z

>  <NumRotatableBonds>  (178) 
3

>  <is_N_methyl>  (178) 
False

>  <is_a_methyl>  (178) 
False

>  <is_alpha_aa>  (178) 
True

>  <is_beta_aa>  (178) 
False

>  <is_S100_aa>  (178) 
False

>  <Murcko_SMILES>  (178) 
c1ccc(O[C@@H]2CCNC2)cc1

$$$$

     RDKit          2D

 10 10  0  0  0  0  0  0  0  0999 V2000
    2.7760   -2.5981    0.0000 O   0  0  0  0  0  0  0  0  0  0  0  0
    3.5260   -1.2990    0.0000 C   0  0  0  0  0  0  0  0  0  0  0  0
    2.7760    0.0000    0.0000 C   0  0  0  0  0  0  0  0  0  0  0  0
    1.2760    0.0000    0.0000 C   0  0  0  0  0  0  0  0  0  0  0  0
    0.3943    1.2135    0.0000 C   0  0  0  0  0  0  0  0  0  0  0  0
   -1.0323    0.7500    0.0000 C   0  0  0  0  0  0  0  0  0  0  0  0
   -1.0323   -0.7500    0.0000 N   0  0  0  0  0  0  0  0  0  0  0  0
   -2.2458   -1.6317    0.0000 R   0  0  0  0  0  1  0  0  0  1  0  0
    0.3943   -1.2135    0.0000 C   0  0  0  0  0  0  0  0  0  0  0  0
    5.0260   -1.2990    0.0000 R   0  0  0  0  0  1  0  0  0  2  0  0
  1  2  2  0
  2  3  1  0
  4  3  1  1
  4  5  1  0
  5  6  1  0
  6  7  1  0
  7  8  1  0
  7  9  1  0
  2 10  1  0
  9  4  1  0
M  END
>  <id>  (179) 
f062aca3-fb36-482f-a0da-bc3f94ca4561

>  <Version>  (179) 
0

>  <Alias>  (179) 
3S3Pyrr

>  <Type>  (179) 
amino_acid

>  <Smiles>  (179) 
O=C(C[C@@H]1CCN([*:1])C1)[*:2]

>  <ProtectedSmiles>  (179) 
O=C(O)C[C@@H]1CCN(C(=O)OCC2c3ccccc3-c3ccccc32)C1

>  <CAS>  (179) 
2137082-40-5

>  <User>  (179) 
sevan.h

>  <StereoComment>  (179) 
as drawn

>  <Name>  (179) 
2-[(3S)-1-{[(9H-fluoren-9-yl)methoxy]carbonyl}pyrrolidin-3-yl]acetic acid

>  <Code>  (179) 
3S3Pyrr

>  <AliasLowerCase>  (179) 
3s3pyrr

>  <LatestVersion>  (179) 
0.0

>  <createdAt>  (179) 
2026-01-14T11:32:49.383Z

>  <updatedAt>  (179) 
2026-01-14T11:32:49.383Z

>  <NumRotatableBonds>  (179) 
2

>  <is_N_methyl>  (179) 
False

>  <is_a_methyl>  (179) 
False

>  <is_alpha_aa>  (179) 
False

>  <is_beta_aa>  (179) 
False

>  <is_S100_aa>  (179) 
False

>  <Murcko_SMILES>  (179) 
C1CCNC1

$$$$

     RDKit          2D

  8  7  0  0  0  0  0  0  0  0999 V2000
    5.1962   -0.0000    0.0000 C   0  0  0  0  0  0  0  0  0  0  0  0
    3.8971    0.7500    0.0000 C   0  0  0  0  0  0  0  0  0  0  0  0
    2.5981   -0.0000    0.0000 C   0  0  0  0  0  0  0  0  0  0  0  0
    1.2990    0.7500    0.0000 C   0  0  0  0  0  0  0  0  0  0  0  0
    1.2990    2.2500    0.0000 O   0  0  0  0  0  0  0  0  0  0  0  0
    0.0000    0.0000    0.0000 R   0  0  0  0  0  1  0  0  0  2  0  0
    3.8971    2.2500    0.0000 N   0  0  0  0  0  0  0  0  0  0  0  0
    5.1962    3.0000    0.0000 R   0  0  0  0  0  1  0  0  0  1  0  0
  2  1  1  1
  2  3  1  0
  3  4  1  0
  4  5  2  0
  4  6  1  0
  2  7  1  0
  7  8  1  0
M  END
>  <id>  (180) 
5c89d079-21b3-402d-ac34-a8ac667f8531

>  <Version>  (180) 
0

>  <Alias>  (180) 
B-hAla

>  <Type>  (180) 
amino_acid

>  <Smiles>  (180) 
C[C@@H](CC(=O)[*:2])N[*:1]

>  <ProtectedSmiles>  (180) 
C[C@@H](CC(=O)O)NC(=O)OCC1c2ccccc2-c2ccccc21

>  <CAS>  (180) 
193954-26-6

>  <User>  (180) 
mischa.s

>  <StereoComment>  (180) 
as drawn

>  <Name>  (180) 
Fmoc-L-beta-homoalanine

>  <Code>  (180) 
B-hAla

>  <AliasLowerCase>  (180) 
b-hala

>  <LatestVersion>  (180) 
0.0

>  <createdAt>  (180) 
2026-01-14T11:36:37.084Z

>  <updatedAt>  (180) 
2026-01-14T11:36:37.084Z

>  <NumRotatableBonds>  (180) 
3

>  <is_N_methyl>  (180) 
False

>  <is_a_methyl>  (180) 
False

>  <is_alpha_aa>  (180) 
False

>  <is_beta_aa>  (180) 
True

>  <is_S100_aa>  (180) 
False

>  <Murcko_SMILES>  (180) 


$$$$

     RDKit          2D

  9  9  0  0  0  0  0  0  0  0999 V2000
    3.5260    1.2990    0.0000 O   0  0  0  0  0  0  0  0  0  0  0  0
    2.7760    0.0000    0.0000 C   0  0  0  0  0  0  0  0  0  0  0  0
    1.2760    0.0000    0.0000 C   0  0  0  0  0  0  0  0  0  0  0  0
    0.3943    1.2135    0.0000 C   0  0  0  0  0  0  0  0  0  0  0  0
   -1.0323    0.7500    0.0000 C   0  0  0  0  0  0  0  0  0  0  0  0
   -1.0323   -0.7500    0.0000 C   0  0  0  0  0  0  0  0  0  0  0  0
    0.3943   -1.2135    0.0000 N   0  0  0  0  0  0  0  0  0  0  0  0
    0.8578   -2.6401    0.0000 R   0  0  0  0  0  1  0  0  0  1  0  0
    3.5260   -1.2990    0.0000 R   0  0  0  0  0  1  0  0  0  2  0  0
  1  2  2  0
  3  2  1  1
  3  4  1  0
  4  5  1  0
  5  6  1  0
  6  7  1  0
  7  8  1  0
  2  9  1  0
  7  3  1  0
M  END
>  <id>  (181) 
1ff4de3d-c8c3-4d1e-854a-575007e1b4c0

>  <Version>  (181) 
0

>  <Alias>  (181) 
Pro

>  <Type>  (181) 
amino_acid

>  <Smiles>  (181) 
O=C([C@@H]1CCCN1[*:1])[*:2]

>  <ProtectedSmiles>  (181) 
O=C(O)[C@@H]1CCCN1C(=O)OCC1c2ccccc2-c2ccccc21

>  <CAS>  (181) 
71989-31-6

>  <User>  (181) 
sevan.h

>  <StereoComment>  (181) 
as drawn

>  <Name>  (181) 
Fmoc-Pro-OH

>  <Code>  (181) 
Pro

>  <AliasLowerCase>  (181) 
pro

>  <LatestVersion>  (181) 
0.0

>  <createdAt>  (181) 
2026-01-14T12:17:17.408Z

>  <updatedAt>  (181) 
2026-01-14T12:17:17.408Z

>  <NumRotatableBonds>  (181) 
1

>  <is_N_methyl>  (181) 
False

>  <is_a_methyl>  (181) 
False

>  <is_alpha_aa>  (181) 
True

>  <is_beta_aa>  (181) 
False

>  <is_S100_aa>  (181) 
False

>  <Murcko_SMILES>  (181) 
C1CCNC1

$$$$

     RDKit          2D

 11 11  0  0  0  0  0  0  0  0999 V2000
    3.8173   -0.5402    0.0000 O   0  0  0  0  0  0  0  0  0  0  0  0
    2.3907   -1.0037    0.0000 C   0  0  0  0  0  0  0  0  0  0  0  0
    1.2760    0.0000    0.0000 C   0  0  0  0  0  0  0  0  0  0  0  0
    2.3907    1.0037    0.0000 C   0  0  0  0  0  0  0  0  0  0  0  0
    3.8173    0.5402    0.0000 N   0  0  0  0  0  0  0  0  0  0  0  0
    4.9320    1.5439    0.0000 R   0  0  0  0  0  1  0  0  0  1  0  0
    0.3943    1.2135    0.0000 C   0  0  0  0  0  0  0  0  0  0  0  0
   -1.0323    0.7500    0.0000 C   0  0  0  0  0  0  0  0  0  0  0  0
   -1.0323   -0.7500    0.0000 C   0  0  0  0  0  0  0  0  0  0  0  0
    0.3943   -1.2135    0.0000 C   0  0  0  0  0  0  0  0  0  0  0  0
    2.0788   -2.4709    0.0000 R   0  0  0  0  0  1  0  0  0  2  0  0
  1  2  2  0
  2  3  1  0
  3  4  1  0
  4  5  1  0
  5  6  1  0
  3  7  1  0
  7  8  1  0
  8  9  1  0
  9 10  1  0
  2 11  1  0
 10  3  1  0
M  END
>  <id>  (182) 
c0ffba9d-fc92-4c0b-af77-76938445f9c1

>  <Version>  (182) 
0

>  <Alias>  (182) 
2CpPA

>  <Type>  (182) 
amino_acid

>  <Smiles>  (182) 
O=C(C1(CN[*:1])CCCC1)[*:2]

>  <ProtectedSmiles>  (182) 
O=C(NCC1(C(=O)O)CCCC1)OCC1c2ccccc2-c2ccccc21

>  <CAS>  (182) 
946727-65-7

>  <User>  (182) 
mischa.s

>  <StereoComment>  (182) 
as drawn

>  <Name>  (182) 
1-[({[(9H-fluoren-9-yl)methoxy]carbonyl}amino)methyl]cyclopentane-1-carboxylic acid

>  <Code>  (182) 
2CpPA

>  <AliasLowerCase>  (182) 
2cppa

>  <LatestVersion>  (182) 
0.0

>  <createdAt>  (182) 
2026-01-14T11:33:12.822Z

>  <updatedAt>  (182) 
2026-01-14T11:33:12.822Z

>  <NumRotatableBonds>  (182) 
3

>  <is_N_methyl>  (182) 
False

>  <is_a_methyl>  (182) 
False

>  <is_alpha_aa>  (182) 
False

>  <is_beta_aa>  (182) 
True

>  <is_S100_aa>  (182) 
False

>  <Murcko_SMILES>  (182) 
C1CCCC1

$$$$

     RDKit          2D

 15 15  0  0  0  0  0  0  0  0999 V2000
    3.7500   -1.2990    0.0000 C   0  0  0  0  0  0  0  0  0  0  0  0
    3.0000    0.0000    0.0000 O   0  0  0  0  0  0  0  0  0  0  0  0
    1.5000    0.0000    0.0000 C   0  0  0  0  0  0  0  0  0  0  0  0
    0.7500   -1.2990    0.0000 C   0  0  0  0  0  0  0  0  0  0  0  0
   -0.7500   -1.2990    0.0000 C   0  0  0  0  0  0  0  0  0  0  0  0
   -1.5000    0.0000    0.0000 C   0  0  0  0  0  0  0  0  0  0  0  0
   -0.7500    1.2990    0.0000 C   0  0  0  0  0  0  0  0  0  0  0  0
   -1.5000    2.5981    0.0000 C   0  0  0  0  0  0  0  0  0  0  0  0
   -0.7500    3.8971    0.0000 C   0  0  0  0  0  0  0  0  0  0  0  0
    0.7500    3.8971    0.0000 N   0  0  0  0  0  0  0  0  0  0  0  0
    1.5000    5.1962    0.0000 R   0  0  0  0  0  1  0  0  0  1  0  0
   -1.5000    5.1962    0.0000 C   0  0  0  0  0  0  0  0  0  0  0  0
   -3.0000    5.1962    0.0000 O   0  0  0  0  0  0  0  0  0  0  0  0
   -0.7500    6.4952    0.0000 R   0  0  0  0  0  1  0  0  0  2  0  0
    0.7500    1.2990    0.0000 C   0  0  0  0  0  0  0  0  0  0  0  0
  1  2  1  0
  2  3  1  0
  3  4  2  0
  4  5  1  0
  5  6  2  0
  6  7  1  0
  7  8  1  0
  8  9  1  0
  9 10  1  0
 10 11  1  0
  9 12  1  0
 12 13  2  0
 12 14  1  0
  7 15  2  0
 15  3  1  0
M  END
>  <id>  (183) 
340f98bf-6b39-4c03-a9aa-ac9900064992

>  <Version>  (183) 
0

>  <Alias>  (183) 
rac-3MeOPhe

>  <Type>  (183) 
amino_acid

>  <Smiles>  (183) 
COc1cccc(CC(N[*:1])C(=O)[*:2])c1

>  <ProtectedSmiles>  (183) 
COc1cccc(CC(NC(=O)OCC2c3ccccc3-c3ccccc32)C(=O)O)c1

>  <CAS>  (183) 
376588-52-2

>  <User>  (183) 
Sevan.habeshian@orbismedicines.com

>  <StereoComment>  (183) 
as drawn

>  <Name>  (183) 
N/A

>  <Code>  (183) 
rac-3MeOPhe

>  <AliasLowerCase>  (183) 
rac-3meophe

>  <LatestVersion>  (183) 
0.0

>  <createdAt>  (183) 
2026-02-13T09:56:35.393Z

>  <updatedAt>  (183) 
2026-02-13T09:56:35.393Z

>  <NumRotatableBonds>  (183) 
5

>  <is_N_methyl>  (183) 
False

>  <is_a_methyl>  (183) 
False

>  <is_alpha_aa>  (183) 
True

>  <is_beta_aa>  (183) 
False

>  <is_S100_aa>  (183) 
False

>  <Murcko_SMILES>  (183) 
c1ccccc1

$$$$

     RDKit          2D

 10 10  0  0  0  0  0  0  0  0999 V2000
    3.5260    1.2990    0.0000 O   0  0  0  0  0  0  0  0  0  0  0  0
    2.7760    0.0000    0.0000 C   0  0  0  0  0  0  0  0  0  0  0  0
    1.2760    0.0000    0.0000 C   0  0  0  0  0  0  0  0  0  0  0  0
    0.3943    1.2135    0.0000 C   0  0  0  0  0  0  0  0  0  0  0  0
   -1.0323    0.7500    0.0000 O   0  0  0  0  0  0  0  0  0  0  0  0
   -1.0323   -0.7500    0.0000 C   0  0  0  0  0  0  0  0  0  0  0  0
    0.3943   -1.2135    0.0000 C   0  0  0  0  0  0  0  0  0  0  0  0
    0.8578   -2.6401    0.0000 N   0  0  0  0  0  0  0  0  0  0  0  0
   -0.1459   -3.7548    0.0000 R   0  0  0  0  0  1  0  0  0  1  0  0
    3.5260   -1.2990    0.0000 R   0  0  0  0  0  1  0  0  0  2  0  0
  1  2  2  0
  3  2  1  1
  3  4  1  0
  4  5  1  0
  5  6  1  0
  6  7  1  0
  7  8  1  1
  8  9  1  0
  2 10  1  0
  7  3  1  0
M  END
>  <id>  (184) 
d111ffcb-c961-4692-9842-536a7130374d

>  <Version>  (184) 
0

>  <Alias>  (184) 
(3S,4R)4OH-OxolCA

>  <Type>  (184) 
amino_acid

>  <Smiles>  (184) 
O=C([C@@H]1COC[C@@H]1N[*:1])[*:2]

>  <ProtectedSmiles>  (184) 
O=C(N[C@H]1COC[C@H]1C(=O)O)OCC1c2ccccc2-c2ccccc21

>  <CAS>  (184) 
2219378-56-8

>  <User>  (184) 
Sevan.habeshian@orbismedicines.com

>  <StereoComment>  (184) 
rac-cis

>  <Name>  (184) 
N/A

>  <Code>  (184) 
(3S,4R)4OH-OxolCA

>  <AliasLowerCase>  (184) 
(3s,4r)4oh-oxolca

>  <LatestVersion>  (184) 
0.0

>  <createdAt>  (184) 
2026-02-13T09:56:35.483Z

>  <updatedAt>  (184) 
2026-02-13T09:56:35.483Z

>  <NumRotatableBonds>  (184) 
2

>  <is_N_methyl>  (184) 
False

>  <is_a_methyl>  (184) 
False

>  <is_alpha_aa>  (184) 
False

>  <is_beta_aa>  (184) 
True

>  <is_S100_aa>  (184) 
False

>  <Murcko_SMILES>  (184) 
C1CCOC1

$$$$

     RDKit          2D

 14 15  0  0  0  0  0  0  0  0999 V2000
    1.2990   -5.8573    0.0000 O   0  0  0  0  0  0  0  0  0  0  0  0
    0.0000   -5.1073    0.0000 C   0  0  0  0  0  0  0  0  0  0  0  0
   -0.0000   -3.6073    0.0000 C   0  0  0  0  0  0  0  0  0  0  0  0
   -1.2135   -2.7256    0.0000 C   0  0  0  0  0  0  0  0  0  0  0  0
   -0.7500   -1.2990    0.0000 C   0  0  0  0  0  0  0  0  0  0  0  0
    0.7500   -1.2990    0.0000 N   0  0  0  0  0  0  0  0  0  0  0  0
    1.2135   -2.7256    0.0000 N   0  0  0  0  0  0  0  0  0  0  0  0
    1.5000    0.0000    0.0000 C   0  0  0  0  0  0  0  0  0  0  0  0
    0.7500    1.2990    0.0000 C   0  0  0  0  0  0  0  0  0  0  0  0
   -0.7500    1.2990    0.0000 C   0  0  0  0  0  0  0  0  0  0  0  0
   -1.5000    0.0000    0.0000 C   0  0  0  0  0  0  0  0  0  0  0  0
   -3.0000    0.0000    0.0000 N   0  0  0  0  0  0  0  0  0  0  0  0
   -3.7500    1.2990    0.0000 R   0  0  0  0  0  1  0  0  0  1  0  0
   -1.2990   -5.8573    0.0000 R   0  0  0  0  0  1  0  0  0  2  0  0
  1  2  2  0
  2  3  1  0
  3  4  1  0
  4  5  2  0
  5  6  1  0
  6  7  1  0
  6  8  1  0
  8  9  1  0
  9 10  1  0
 10 11  1  0
 11 12  1  0
 12 13  1  0
  2 14  1  0
  7  3  2  0
 11  5  1  0
M  END
>  <id>  (185) 
fb770b7e-bccc-45b3-b961-13d8c56a4c3a

>  <Version>  (185) 
0

>  <Alias>  (185) 
PzPyCA

>  <Type>  (185) 
amino_acid

>  <Smiles>  (185) 
O=C(c1cc2n(n1)CCCC2N[*:1])[*:2]

>  <ProtectedSmiles>  (185) 
O=C(NC1CCCn2nc(C(=O)O)cc21)OCC1c2ccccc2-c2ccccc21

>  <CAS>  (185) 
2138409-62-6

>  <User>  (185) 
Sevan.habeshian@orbismedicines.com

>  <StereoComment>  (185) 
as drawn

>  <Name>  (185) 
N/A

>  <Code>  (185) 
PzPyCA

>  <AliasLowerCase>  (185) 
pzpyca

>  <LatestVersion>  (185) 
0.0

>  <createdAt>  (185) 
2026-02-13T09:56:36.398Z

>  <updatedAt>  (185) 
2026-02-13T09:56:36.398Z

>  <NumRotatableBonds>  (185) 
2

>  <is_N_methyl>  (185) 
False

>  <is_a_methyl>  (185) 
False

>  <is_alpha_aa>  (185) 
False

>  <is_beta_aa>  (185) 
False

>  <is_S100_aa>  (185) 
False

>  <Murcko_SMILES>  (185) 
c1cc2n(n1)CCCC2

$$$$

     RDKit          2D

 13 14  0  0  0  0  0  0  0  0999 V2000
    3.1235   -0.2423    0.0000 O   0  0  0  0  0  0  0  0  0  0  0  0
    2.2418   -1.4558    0.0000 C   0  0  0  0  0  0  0  0  0  0  0  0
    0.7500   -1.2990    0.0000 C   0  0  0  0  0  0  0  0  0  0  0  0
    1.5000    0.0000    0.0000 C   0  0  0  0  0  0  0  0  0  0  0  0
    0.7500    1.2990    0.0000 O   0  0  0  0  0  0  0  0  0  0  0  0
   -0.7500    1.2990    0.0000 C   0  0  0  0  0  0  0  0  0  0  0  0
   -1.5000    0.0000    0.0000 C   0  0  0  0  0  0  0  0  0  0  0  0
   -0.7500   -1.2990    0.0000 C   0  0  0  0  0  0  0  0  0  0  0  0
   -1.2135   -2.7256    0.0000 C   0  0  0  0  0  0  0  0  0  0  0  0
    0.0000   -3.6073    0.0000 N   0  0  0  0  0  0  0  0  0  0  0  0
    0.0000   -5.1073    0.0000 R   0  0  0  0  0  1  0  0  0  1  0  0
    1.2135   -2.7256    0.0000 C   0  0  0  0  0  0  0  0  0  0  0  0
    2.8519   -2.8261    0.0000 R   0  0  0  0  0  1  0  0  0  2  0  0
  1  2  2  0
  3  2  1  6
  3  4  1  0
  4  5  1  0
  5  6  1  0
  6  7  1  0
  8  7  1  1
  8  9  1  0
  9 10  1  0
 10 11  1  0
 10 12  1  0
  2 13  1  0
  8  3  1  0
 12  3  1  0
M  END
>  <id>  (186) 
07c633a4-ddad-417c-a205-35c912159a8d

>  <Version>  (186) 
0

>  <Alias>  (186) 
(3aS,7aS)OctPyrCA

>  <Type>  (186) 
amino_acid

>  <Smiles>  (186) 
O=C([C@@]12COCC[C@@H]1CN([*:1])C2)[*:2]

>  <ProtectedSmiles>  (186) 
O=C(OCC1c2ccccc2-c2ccccc21)N1C[C@H]2CCOC[C@@]2(C(=O)O)C1

>  <CAS>  (186) 
2138311-30-3

>  <User>  (186) 
Sevan.habeshian@orbismedicines.com

>  <StereoComment>  (186) 
rac-cis

>  <Name>  (186) 
N/A

>  <Code>  (186) 
(3aS,7aS)OctPyrCA

>  <AliasLowerCase>  (186) 
(3as,7as)octpyrca

>  <LatestVersion>  (186) 
0.0

>  <createdAt>  (186) 
2026-02-13T09:56:36.411Z

>  <updatedAt>  (186) 
2026-02-13T09:56:36.411Z

>  <NumRotatableBonds>  (186) 
1

>  <is_N_methyl>  (186) 
False

>  <is_a_methyl>  (186) 
False

>  <is_alpha_aa>  (186) 
False

>  <is_beta_aa>  (186) 
True

>  <is_S100_aa>  (186) 
False

>  <Murcko_SMILES>  (186) 
C1C[C@@H]2CNCC2CO1

$$$$

     RDKit          2D

 10 11  0  0  0  0  0  0  0  0999 V2000
    1.2990   -3.3107    0.0000 O   0  0  0  0  0  0  0  0  0  0  0  0
   -0.0000   -2.5607    0.0000 C   0  0  0  0  0  0  0  0  0  0  0  0
   -0.0000   -1.0607    0.0000 C   0  0  0  0  0  0  0  0  0  0  0  0
    1.0607    0.0000    0.0000 C   0  0  0  0  0  0  0  0  0  0  0  0
    0.0000    1.0607    0.0000 C   0  0  0  0  0  0  0  0  0  0  0  0
    1.4266    0.5971    0.0000 C   0  0  0  0  0  0  0  0  0  0  0  0
    1.4266   -0.9029    0.0000 N   0  0  0  0  0  0  0  0  0  0  0  0
    2.6401   -1.7845    0.0000 R   0  0  0  0  0  1  0  0  0  1  0  0
   -1.0607    0.0000    0.0000 C   0  0  0  0  0  0  0  0  0  0  0  0
   -1.2990   -3.3107    0.0000 R   0  0  0  0  0  1  0  0  0  2  0  0
  1  2  2  0
  2  3  1  0
  3  4  1  0
  4  5  1  0
  5  6  1  0
  6  7  1  0
  7  8  1  0
  5  9  1  0
  2 10  1  0
  7  3  1  0
  9  3  1  0
M  END
>  <id>  (187) 
1fc2a112-624d-43b5-b71f-ba77d2d439d4

>  <Version>  (187) 
0

>  <Alias>  (187) 
2,4mPro

>  <Type>  (187) 
amino_acid

>  <Smiles>  (187) 
O=C(C12CC(CN1[*:1])C2)[*:2]

>  <ProtectedSmiles>  (187) 
O=C(OCC1c2ccccc2-c2ccccc21)N1CC2CC1(C(=O)O)C2

>  <CAS>  (187) 
1936396-62-1

>  <User>  (187) 
sevan.h

>  <StereoComment>  (187) 
as drawn

>  <Name>  (187) 
Fmoc-2,4-methanoproline

>  <Code>  (187) 
2,4mPro

>  <AliasLowerCase>  (187) 
2,4mpro

>  <LatestVersion>  (187) 
0.0

>  <createdAt>  (187) 
2026-01-14T12:15:10.077Z

>  <updatedAt>  (187) 
2026-01-14T12:15:10.077Z

>  <NumRotatableBonds>  (187) 
1

>  <is_N_methyl>  (187) 
False

>  <is_a_methyl>  (187) 
False

>  <is_alpha_aa>  (187) 
True

>  <is_beta_aa>  (187) 
False

>  <is_S100_aa>  (187) 
False

>  <Murcko_SMILES>  (187) 
C1NC2CC1C2

$$$$

     RDKit          2D

 11 11  0  0  0  0  0  0  0  0999 V2000
    5.5607    0.0000    0.0000 O   0  0  0  0  0  0  0  0  0  0  0  0
    4.8107   -1.2990    0.0000 C   0  0  0  0  0  0  0  0  0  0  0  0
    3.3107   -1.2990    0.0000 C   0  0  0  0  0  0  0  0  0  0  0  0
    2.5607    0.0000    0.0000 C   0  0  0  0  0  0  0  0  0  0  0  0
    1.0607    0.0000    0.0000 C   0  0  0  0  0  0  0  0  0  0  0  0
   -0.0000   -1.0607    0.0000 C   0  0  0  0  0  0  0  0  0  0  0  0
   -1.0607    0.0000    0.0000 C   0  0  0  0  0  0  0  0  0  0  0  0
    0.0000    1.0607    0.0000 C   0  0  0  0  0  0  0  0  0  0  0  0
    2.5607   -2.5981    0.0000 N   0  0  0  0  0  0  0  0  0  0  0  0
    3.3107   -3.8971    0.0000 R   0  0  0  0  0  1  0  0  0  1  0  0
    5.5607   -2.5981    0.0000 R   0  0  0  0  0  1  0  0  0  2  0  0
  1  2  2  0
  2  3  1  0
  3  4  1  1
  4  5  1  0
  5  6  1  0
  6  7  1  0
  7  8  1  0
  3  9  1  0
  9 10  1  0
  2 11  1  0
  8  5  1  0
M  END
>  <id>  (188) 
55fc7179-ca3c-4cbe-9310-7f6b94e2e6b4

>  <Version>  (188) 
0

>  <Alias>  (188) 
cButAla

>  <Type>  (188) 
amino_acid

>  <Smiles>  (188) 
O=C([C@H](CC1CCC1)N[*:1])[*:2]

>  <ProtectedSmiles>  (188) 
O=C(N[C@@H](CC1CCC1)C(=O)O)OCC1c2ccccc2-c2ccccc21

>  <CAS>  (188) 
478183-62-9

>  <User>  (188) 
sevan.h

>  <StereoComment>  (188) 
as drawn

>  <Name>  (188) 
Fmoc-L-cycbutylAla-OH

>  <Code>  (188) 
cButAla

>  <AliasLowerCase>  (188) 
cbutala

>  <LatestVersion>  (188) 
0.0

>  <createdAt>  (188) 
2026-01-14T12:15:02.443Z

>  <updatedAt>  (188) 
2026-01-14T12:15:02.443Z

>  <NumRotatableBonds>  (188) 
4

>  <is_N_methyl>  (188) 
False

>  <is_a_methyl>  (188) 
False

>  <is_alpha_aa>  (188) 
True

>  <is_beta_aa>  (188) 
False

>  <is_S100_aa>  (188) 
False

>  <Murcko_SMILES>  (188) 
C1CCC1

$$$$

     RDKit          2D

 16 17  0  0  0  0  0  0  0  0999 V2000
   -5.4933   -4.1162    0.0000 O   0  0  0  0  0  0  0  0  0  0  0  0
   -4.3786   -5.1199    0.0000 C   0  0  0  0  0  0  0  0  0  0  0  0
   -2.9520   -4.6564    0.0000 C   0  0  0  0  0  0  0  0  0  0  0  0
   -2.6401   -3.1891    0.0000 C   0  0  0  0  0  0  0  0  0  0  0  0
   -1.2135   -2.7256    0.0000 C   0  0  0  0  0  0  0  0  0  0  0  0
   -0.0000   -3.6073    0.0000 C   0  0  0  0  0  0  0  0  0  0  0  0
    1.2135   -2.7256    0.0000 N   0  0  0  0  0  0  0  0  0  0  0  0
    0.7500   -1.2990    0.0000 C   0  0  0  0  0  0  0  0  0  0  0  0
    1.5000    0.0000    0.0000 C   0  0  0  0  0  0  0  0  0  0  0  0
    0.7500    1.2990    0.0000 C   0  0  0  0  0  0  0  0  0  0  0  0
   -0.7500    1.2990    0.0000 C   0  0  0  0  0  0  0  0  0  0  0  0
   -1.5000    0.0000    0.0000 C   0  0  0  0  0  0  0  0  0  0  0  0
   -0.7500   -1.2990    0.0000 C   0  0  0  0  0  0  0  0  0  0  0  0
   -1.8373   -5.6601    0.0000 N   0  0  0  0  0  0  0  0  0  0  0  0
   -2.1491   -7.1273    0.0000 R   0  0  0  0  0  1  0  0  0  1  0  0
   -4.6904   -6.5871    0.0000 R   0  0  0  0  0  1  0  0  0  2  0  0
  1  2  2  0
  2  3  1  0
  3  4  1  1
  4  5  1  0
  5  6  2  0
  6  7  1  0
  7  8  1  0
  8  9  2  0
  9 10  1  0
 10 11  2  0
 11 12  1  0
 12 13  2  0
  3 14  1  0
 14 15  1  0
  2 16  1  0
 13  5  1  0
 13  8  1  0
M  END
>  <id>  (189) 
e2ea653b-5423-4c21-bed1-795d50e9afb2

>  <Version>  (189) 
0

>  <Alias>  (189) 
D-Trp(noBoc)

>  <Type>  (189) 
amino_acid

>  <Smiles>  (189) 
O=C([C@@H](Cc1c[nH]c2ccccc12)N[*:1])[*:2]

>  <ProtectedSmiles>  (189) 
O=C(N[C@H](Cc1c[nH]c2ccccc12)C(=O)O)OCC1c2ccccc2-c2ccccc21

>  <CAS>  (189) 
86123-11-7

>  <User>  (189) 
cs@orbismedicines.com

>  <StereoComment>  (189) 
as drawn

>  <Name>  (189) 
Fmoc-D-Trp-OH

>  <Code>  (189) 
D-Trp(no Boc)

>  <AliasLowerCase>  (189) 
d-trp(noboc)

>  <LatestVersion>  (189) 
1.0

>  <createdAt>  (189) 
2026-01-14T11:33:15.665Z

>  <updatedAt>  (189) 
2026-02-18T08:01:42.326Z

>  <NumRotatableBonds>  (189) 
4

>  <is_N_methyl>  (189) 
False

>  <is_a_methyl>  (189) 
False

>  <is_alpha_aa>  (189) 
True

>  <is_beta_aa>  (189) 
False

>  <is_S100_aa>  (189) 
False

>  <Murcko_SMILES>  (189) 
c1ccc2[nH]ccc2c1

$$$$

     RDKit          2D

 16 17  0  0  0  0  0  0  0  0999 V2000
   -5.4933   -4.1162    0.0000 O   0  0  0  0  0  0  0  0  0  0  0  0
   -4.3786   -5.1199    0.0000 C   0  0  0  0  0  0  0  0  0  0  0  0
   -2.9520   -4.6564    0.0000 C   0  0  0  0  0  0  0  0  0  0  0  0
   -2.6401   -3.1891    0.0000 C   0  0  0  0  0  0  0  0  0  0  0  0
   -1.2135   -2.7256    0.0000 C   0  0  0  0  0  0  0  0  0  0  0  0
   -0.0000   -3.6073    0.0000 C   0  0  0  0  0  0  0  0  0  0  0  0
    1.2135   -2.7256    0.0000 N   0  0  0  0  0  0  0  0  0  0  0  0
    0.7500   -1.2990    0.0000 C   0  0  0  0  0  0  0  0  0  0  0  0
    1.5000    0.0000    0.0000 C   0  0  0  0  0  0  0  0  0  0  0  0
    0.7500    1.2990    0.0000 C   0  0  0  0  0  0  0  0  0  0  0  0
   -0.7500    1.2990    0.0000 C   0  0  0  0  0  0  0  0  0  0  0  0
   -1.5000    0.0000    0.0000 C   0  0  0  0  0  0  0  0  0  0  0  0
   -0.7500   -1.2990    0.0000 C   0  0  0  0  0  0  0  0  0  0  0  0
   -1.8373   -5.6601    0.0000 N   0  0  0  0  0  0  0  0  0  0  0  0
   -2.1491   -7.1273    0.0000 R   0  0  0  0  0  1  0  0  0  1  0  0
   -4.6904   -6.5871    0.0000 R   0  0  0  0  0  1  0  0  0  2  0  0
  1  2  2  0
  2  3  1  0
  3  4  1  1
  4  5  1  0
  5  6  2  0
  6  7  1  0
  7  8  1  0
  8  9  2  0
  9 10  1  0
 10 11  2  0
 11 12  1  0
 12 13  2  0
  3 14  1  0
 14 15  1  0
  2 16  1  0
 13  5  1  0
 13  8  1  0
M  END
>  <id>  (190) 
e2ea653b-5423-4c21-bed1-795d50e9afb2

>  <Version>  (190) 
1

>  <Alias>  (190) 
D-Trp(no Boc)

>  <Type>  (190) 
amino_acid

>  <Smiles>  (190) 
O=C([C@@H](Cc1c[nH]c2ccccc12)N[*:1])[*:2]

>  <ProtectedSmiles>  (190) 
O=C(N[C@H](Cc1c[nH]c2ccccc12)C(=O)O)OCC1c2ccccc2-c2ccccc21

>  <CAS>  (190) 
86123-11-7

>  <User>  (190) 
mischa.s

>  <StereoComment>  (190) 
as drawn

>  <Name>  (190) 
Fmoc-D-Trp-OH

>  <Code>  (190) 
D-Trp(no Boc)

>  <AliasLowerCase>  (190) 
d-trp(no boc)

>  <LatestVersion>  (190) 
nan

>  <createdAt>  (190) 
2026-01-14T11:33:15.665Z

>  <updatedAt>  (190) 
2026-01-14T11:33:15.665Z

>  <NumRotatableBonds>  (190) 
4

>  <is_N_methyl>  (190) 
False

>  <is_a_methyl>  (190) 
False

>  <is_alpha_aa>  (190) 
True

>  <is_beta_aa>  (190) 
False

>  <is_S100_aa>  (190) 
False

>  <Murcko_SMILES>  (190) 
c1ccc2[nH]ccc2c1

$$$$

     RDKit          2D

 13 14  0  0  0  0  0  0  0  0999 V2000
    3.7548   -2.1855    0.0000 O   0  0  0  0  0  0  0  0  0  0  0  0
    2.6401   -3.1891    0.0000 C   0  0  0  0  0  0  0  0  0  0  0  0
    1.2135   -2.7256    0.0000 C   0  0  0  0  0  0  0  0  0  0  0  0
    0.0000   -3.6073    0.0000 N   0  0  0  0  0  0  0  0  0  0  0  0
   -1.2135   -2.7256    0.0000 C   0  0  0  0  0  0  0  0  0  0  0  0
   -0.7500   -1.2990    0.0000 N   0  0  0  0  0  0  0  0  0  0  0  0
    0.7500   -1.2990    0.0000 C   0  0  0  0  0  0  0  0  0  0  0  0
    1.5000    0.0000    0.0000 C   0  0  0  0  0  0  0  0  0  0  0  0
    0.7500    1.2990    0.0000 N   0  0  0  0  0  0  0  0  0  0  0  0
    1.5000    2.5981    0.0000 R   0  0  0  0  0  1  0  0  0  1  0  0
   -0.7500    1.2990    0.0000 C   0  0  0  0  0  0  0  0  0  0  0  0
   -1.5000    0.0000    0.0000 C   0  0  0  0  0  0  0  0  0  0  0  0
    2.9520   -4.6564    0.0000 R   0  0  0  0  0  1  0  0  0  2  0  0
  1  2  2  0
  2  3  1  0
  3  4  1  0
  4  5  2  0
  5  6  1  0
  6  7  1  0
  7  8  1  0
  8  9  1  0
  9 10  1  0
  9 11  1  0
 11 12  1  0
  2 13  1  0
  7  3  2  0
 12  6  1  0
M  END
>  <id>  (191) 
98da2de9-a1a5-4025-9847-146f3431c8ad

>  <Version>  (191) 
0

>  <Alias>  (191) 
ImidzPiprzn

>  <Type>  (191) 
amino_acid

>  <Smiles>  (191) 
O=C(c1ncn2c1CN([*:1])CC2)[*:2]

>  <ProtectedSmiles>  (191) 
O=C(O)c1ncn2c1CN(C(=O)OCC1c3ccccc3-c3ccccc31)CC2

>  <CAS>  (191) 
2137822-35-4

>  <User>  (191) 
Sevan.habeshian@orbismedicines.com

>  <StereoComment>  (191) 
as drawn

>  <Name>  (191) 
N/A

>  <Code>  (191) 
ImidzPiprzn

>  <AliasLowerCase>  (191) 
imidzpiprzn

>  <LatestVersion>  (191) 
0.0

>  <createdAt>  (191) 
2026-02-13T09:56:35.507Z

>  <updatedAt>  (191) 
2026-02-13T09:56:35.507Z

>  <NumRotatableBonds>  (191) 
1

>  <is_N_methyl>  (191) 
False

>  <is_a_methyl>  (191) 
False

>  <is_alpha_aa>  (191) 
False

>  <is_beta_aa>  (191) 
False

>  <is_S100_aa>  (191) 
False

>  <Murcko_SMILES>  (191) 
c1ncn2c1CNCC2

$$$$

     RDKit          2D

 14 14  0  0  0  0  0  0  0  0999 V2000
    3.5260    1.2990    0.0000 O   0  0  0  0  0  0  0  0  0  0  0  0
    2.7760    0.0000    0.0000 C   0  0  0  0  0  0  0  0  0  0  0  0
    3.5260   -1.2990    0.0000 C   0  0  0  0  0  0  0  0  0  0  0  0
    5.0260   -1.2990    0.0000 C   0  0  0  0  0  0  0  0  0  0  0  0
    5.7760    0.0000    0.0000 N   0  0  0  0  0  0  0  0  0  0  0  0
    7.2760    0.0000    0.0000 R   0  0  0  0  0  1  0  0  0  1  0  0
    5.7760   -2.5981    0.0000 C   0  0  0  0  0  0  0  0  0  0  0  0
    5.0260   -3.8971    0.0000 O   0  0  0  0  0  0  0  0  0  0  0  0
    7.2760   -2.5981    0.0000 R   0  0  0  0  0  1  0  0  0  2  0  0
    1.2760    0.0000    0.0000 N   0  0  0  0  0  0  0  0  0  0  0  0
    0.3943    1.2135    0.0000 C   0  0  0  0  0  0  0  0  0  0  0  0
   -1.0323    0.7500    0.0000 C   0  0  0  0  0  0  0  0  0  0  0  0
   -1.0323   -0.7500    0.0000 C   0  0  0  0  0  0  0  0  0  0  0  0
    0.3943   -1.2135    0.0000 C   0  0  0  0  0  0  0  0  0  0  0  0
  1  2  2  0
  2  3  1  0
  4  3  1  6
  4  5  1  0
  5  6  1  0
  4  7  1  0
  7  8  2  0
  7  9  1  0
  2 10  1  0
 10 11  1  0
 11 12  1  0
 12 13  1  0
 13 14  1  0
 14 10  1  0
M  END
>  <id>  (192) 
3ac679f2-ae75-4ea4-a8d9-653c347dbec0

>  <Version>  (192) 
0

>  <Alias>  (192) 
Asn(Pyr)

>  <Type>  (192) 
amino_acid

>  <Smiles>  (192) 
O=C(C[C@H](N[*:1])C(=O)[*:2])N1CCCC1

>  <ProtectedSmiles>  (192) 
O=C(N[C@@H](CC(=O)N1CCCC1)C(=O)O)OCC1c2ccccc2-c2ccccc21

>  <CAS>  (192) 
2973755-00-7

>  <User>  (192) 
sevan.h

>  <StereoComment>  (192) 
as drawn

>  <Name>  (192) 
Fmoc-Asn(Pyr)-OH

>  <Code>  (192) 
Asn(Pyr)

>  <AliasLowerCase>  (192) 
asn(pyr)

>  <LatestVersion>  (192) 
0.0

>  <createdAt>  (192) 
2026-01-14T12:15:18.441Z

>  <updatedAt>  (192) 
2026-01-14T12:15:18.441Z

>  <NumRotatableBonds>  (192) 
4

>  <is_N_methyl>  (192) 
False

>  <is_a_methyl>  (192) 
False

>  <is_alpha_aa>  (192) 
True

>  <is_beta_aa>  (192) 
False

>  <is_S100_aa>  (192) 
False

>  <Murcko_SMILES>  (192) 
C1CCNC1

$$$$

     RDKit          2D

 12 12  0  0  0  0  0  0  0  0999 V2000
    3.0000   -2.5981    0.0000 O   0  0  0  0  0  0  0  0  0  0  0  0
    3.7500   -1.2990    0.0000 C   0  0  0  0  0  0  0  0  0  0  0  0
    3.0000    0.0000    0.0000 C   0  0  0  0  0  0  0  0  0  0  0  0
    3.7500    1.2990    0.0000 N   0  0  0  0  0  0  0  0  0  0  0  0
    5.2500    1.2990    0.0000 R   0  0  0  0  0  1  0  0  0  1  0  0
    1.5000    0.0000    0.0000 C   0  0  0  0  0  0  0  0  0  0  0  0
    0.7500   -1.2990    0.0000 C   0  0  0  0  0  0  0  0  0  0  0  0
   -0.7500   -1.2990    0.0000 C   0  0  0  0  0  0  0  0  0  0  0  0
   -1.5000    0.0000    0.0000 C   0  0  0  0  0  0  0  0  0  0  0  0
   -0.7500    1.2990    0.0000 C   0  0  0  0  0  0  0  0  0  0  0  0
    0.7500    1.2990    0.0000 C   0  0  0  0  0  0  0  0  0  0  0  0
    5.2500   -1.2990    0.0000 R   0  0  0  0  0  1  0  0  0  2  0  0
  1  2  2  0
  2  3  1  0
  3  4  1  6
  4  5  1  0
  3  6  1  0
  6  7  1  0
  7  8  1  0
  8  9  1  0
  9 10  1  0
 10 11  1  0
  2 12  1  0
 11  6  1  0
M  END
>  <id>  (193) 
edf488fd-de4c-4bed-b042-c6fd67ae4a0d

>  <Version>  (193) 
0

>  <Alias>  (193) 
Chg

>  <Type>  (193) 
amino_acid

>  <Smiles>  (193) 
O=C([C@@H](N[*:1])C1CCCCC1)[*:2]

>  <ProtectedSmiles>  (193) 
O=C(N[C@H](C(=O)O)C1CCCCC1)OCC1c2ccccc2-c2ccccc21

>  <CAS>  (193) 
161321-36-4

>  <User>  (193) 
cs@orbismedicines.com

>  <StereoComment>  (193) 
as drawn

>  <Name>  (193) 
Fmoc-CHG-OH

>  <Code>  (193) 
Chg

>  <AliasLowerCase>  (193) 
chg

>  <LatestVersion>  (193) 
1.0

>  <createdAt>  (193) 
2026-01-14T12:16:27.395Z

>  <updatedAt>  (193) 
2026-02-16T16:44:33.501Z

>  <NumRotatableBonds>  (193) 
3

>  <is_N_methyl>  (193) 
False

>  <is_a_methyl>  (193) 
False

>  <is_alpha_aa>  (193) 
True

>  <is_beta_aa>  (193) 
False

>  <is_S100_aa>  (193) 
False

>  <Murcko_SMILES>  (193) 
C1CCCCC1

$$$$

     RDKit          2D

 12 12  0  0  0  0  0  0  0  0999 V2000
    3.0000   -2.5981    0.0000 O   0  0  0  0  0  0  0  0  0  0  0  0
    3.7500   -1.2990    0.0000 C   0  0  0  0  0  0  0  0  0  0  0  0
    3.0000    0.0000    0.0000 C   0  0  0  0  0  0  0  0  0  0  0  0
    3.7500    1.2990    0.0000 N   0  0  0  0  0  0  0  0  0  0  0  0
    5.2500    1.2990    0.0000 R   0  0  0  0  0  1  0  0  0  1  0  0
    1.5000    0.0000    0.0000 C   0  0  0  0  0  0  0  0  0  0  0  0
    0.7500   -1.2990    0.0000 C   0  0  0  0  0  0  0  0  0  0  0  0
   -0.7500   -1.2990    0.0000 C   0  0  0  0  0  0  0  0  0  0  0  0
   -1.5000    0.0000    0.0000 C   0  0  0  0  0  0  0  0  0  0  0  0
   -0.7500    1.2990    0.0000 C   0  0  0  0  0  0  0  0  0  0  0  0
    0.7500    1.2990    0.0000 C   0  0  0  0  0  0  0  0  0  0  0  0
    5.2500   -1.2990    0.0000 R   0  0  0  0  0  1  0  0  0  2  0  0
  1  2  2  0
  2  3  1  0
  3  4  1  6
  4  5  1  0
  3  6  1  0
  6  7  1  0
  7  8  1  0
  8  9  1  0
  9 10  1  0
 10 11  1  0
  2 12  1  0
 11  6  1  0
M  END
>  <id>  (194) 
edf488fd-de4c-4bed-b042-c6fd67ae4a0d

>  <Version>  (194) 
1

>  <Alias>  (194) 
Chg

>  <Type>  (194) 
amino_acid

>  <Smiles>  (194) 
O=C([C@@H](N[*:1])C1CCCCC1)[*:2]

>  <ProtectedSmiles>  (194) 
O=C(N[C@H](C(=O)O)C1CCCCC1)OCC1c2ccccc2-c2ccccc21

>  <CAS>  (194) 
161321-36-4

>  <User>  (194) 
sevan.h

>  <StereoComment>  (194) 
as drawn

>  <Name>  (194) 
Fmoc-CHG-OH

>  <Code>  (194) 
Chg

>  <AliasLowerCase>  (194) 
chg

>  <LatestVersion>  (194) 
nan

>  <createdAt>  (194) 
2026-01-14T12:16:27.395Z

>  <updatedAt>  (194) 
2026-01-14T12:16:27.395Z

>  <NumRotatableBonds>  (194) 
3

>  <is_N_methyl>  (194) 
False

>  <is_a_methyl>  (194) 
False

>  <is_alpha_aa>  (194) 
True

>  <is_beta_aa>  (194) 
False

>  <is_S100_aa>  (194) 
False

>  <Murcko_SMILES>  (194) 
C1CCCCC1

$$$$

     RDKit          2D

 12 11  0  0  0  0  0  0  0  0999 V2000
    9.0933    0.7500    0.0000 C   0  0  0  0  0  0  0  0  0  0  0  0
    7.7942   -0.0000    0.0000 N   0  0  0  0  0  0  0  0  0  0  0  0
    6.4952    0.7500    0.0000 C   0  0  0  0  0  0  0  0  0  0  0  0
    6.4952    2.2500    0.0000 O   0  0  0  0  0  0  0  0  0  0  0  0
    5.1962   -0.0000    0.0000 C   0  0  0  0  0  0  0  0  0  0  0  0
    3.8971    0.7500    0.0000 C   0  0  0  0  0  0  0  0  0  0  0  0
    2.5981   -0.0000    0.0000 C   0  0  0  0  0  0  0  0  0  0  0  0
    1.2990    0.7500    0.0000 C   0  0  0  0  0  0  0  0  0  0  0  0
    1.2990    2.2500    0.0000 O   0  0  0  0  0  0  0  0  0  0  0  0
    0.0000    0.0000    0.0000 R   0  0  0  0  0  1  0  0  0  2  0  0
    5.1962   -1.5000    0.0000 N   0  0  0  0  0  0  0  0  0  0  0  0
    6.4952   -2.2500    0.0000 R   0  0  0  0  0  1  0  0  0  1  0  0
  1  2  1  0
  2  3  1  0
  3  4  2  0
  3  5  1  0
  5  6  1  1
  6  7  1  0
  7  8  1  0
  8  9  2  0
  8 10  1  0
  5 11  1  0
 11 12  1  0
M  END
>  <id>  (195) 
9898b354-ee56-42ef-8aaa-6d438f692990

>  <Version>  (195) 
0

>  <Alias>  (195) 
Gln-NHMe

>  <Type>  (195) 
amino_acid

>  <Smiles>  (195) 
CNC(=O)[C@H](CCC(=O)[*:2])N[*:1]

>  <ProtectedSmiles>  (195) 
CNC(=O)[C@H](CCC(=O)O)NC(=O)OCC1c2ccccc2-c2ccccc21

>  <CAS>  (195) 
1147126-41-7

>  <User>  (195) 
sevan.h

>  <StereoComment>  (195) 
as drawn

>  <Name>  (195) 
(4S)-4-(Fmoc amino)-5-(methylamino)-5-oxo-pentanoic acid

>  <Code>  (195) 
Gln-NHMe

>  <AliasLowerCase>  (195) 
gln-nhme

>  <LatestVersion>  (195) 
0.0

>  <createdAt>  (195) 
2026-01-14T11:37:58.144Z

>  <updatedAt>  (195) 
2026-01-14T11:37:58.144Z

>  <NumRotatableBonds>  (195) 
5

>  <is_N_methyl>  (195) 
False

>  <is_a_methyl>  (195) 
False

>  <is_alpha_aa>  (195) 
False

>  <is_beta_aa>  (195) 
False

>  <is_S100_aa>  (195) 
False

>  <Murcko_SMILES>  (195) 


$$$$

     RDKit          2D

 10  9  0  0  0  0  0  0  0  0999 V2000
    5.1962   -1.5000    0.0000 O   0  0  0  0  0  0  0  0  0  0  0  0
    5.1962   -0.0000    0.0000 C   0  0  0  0  0  0  0  0  0  0  0  0
    6.4952    0.7500    0.0000 O   0  0  0  0  0  0  0  0  0  0  0  0
    3.8971    0.7500    0.0000 C   0  0  0  0  0  0  0  0  0  0  0  0
    2.5981   -0.0000    0.0000 C   0  0  0  0  0  0  0  0  0  0  0  0
    1.2990    0.7500    0.0000 N   0  0  0  0  0  0  0  0  0  0  0  0
    0.0000    0.0000    0.0000 R   0  0  0  0  0  1  0  0  0  1  0  0
    2.5981   -1.5000    0.0000 C   0  0  0  0  0  0  0  0  0  0  0  0
    1.2990   -2.2500    0.0000 O   0  0  0  0  0  0  0  0  0  0  0  0
    3.8971   -2.2500    0.0000 R   0  0  0  0  0  1  0  0  0  2  0  0
  1  2  2  0
  2  3  1  0
  2  4  1  0
  5  4  1  1
  5  6  1  0
  6  7  1  0
  5  8  1  0
  8  9  2  0
  8 10  1  0
M  END
>  <id>  (196) 
5e807007-2d93-416d-a212-6c8527b15b56

>  <Version>  (196) 
0

>  <Alias>  (196) 
Asp

>  <Type>  (196) 
amino_acid

>  <Smiles>  (196) 
O=C(O)C[C@H](N[*:1])C(=O)[*:2]

>  <ProtectedSmiles>  (196) 
CC(C)(C)OC(=O)C[C@H](NC(=O)OCC1c2ccccc2-c2ccccc21)C(=O)O

>  <CAS>  (196) 
71989-14-5

>  <User>  (196) 
sevan.h

>  <StereoComment>  (196) 
as drawn

>  <Name>  (196) 
Fmoc-Asp(OtBu)-OH

>  <Code>  (196) 
Asp

>  <AliasLowerCase>  (196) 
asp

>  <LatestVersion>  (196) 
0.0

>  <createdAt>  (196) 
2026-01-14T12:16:42.151Z

>  <updatedAt>  (196) 
2026-01-14T12:16:42.151Z

>  <NumRotatableBonds>  (196) 
4

>  <is_N_methyl>  (196) 
False

>  <is_a_methyl>  (196) 
False

>  <is_alpha_aa>  (196) 
True

>  <is_beta_aa>  (196) 
False

>  <is_S100_aa>  (196) 
False

>  <Murcko_SMILES>  (196) 


$$$$

     RDKit          2D

 14 14  0  0  0  0  0  0  0  0999 V2000
    3.0000    0.0000    0.0000 C   0  0  0  0  0  0  0  0  0  0  0  0
    1.5000    0.0000    0.0000 C   0  0  0  0  0  0  0  0  0  0  0  0
    0.7500   -1.2990    0.0000 C   0  0  0  0  0  0  0  0  0  0  0  0
   -0.7500   -1.2990    0.0000 C   0  0  0  0  0  0  0  0  0  0  0  0
   -1.5000    0.0000    0.0000 C   0  0  0  0  0  0  0  0  0  0  0  0
   -0.7500    1.2990    0.0000 C   0  0  0  0  0  0  0  0  0  0  0  0
    0.7500    1.2990    0.0000 C   0  0  0  0  0  0  0  0  0  0  0  0
    1.5000    2.5981    0.0000 C   0  0  0  0  0  0  0  0  0  0  0  0
    0.7500    3.8971    0.0000 C   0  0  0  0  0  0  0  0  0  0  0  0
   -0.7500    3.8971    0.0000 N   0  0  0  0  0  0  0  0  0  0  0  0
   -1.5000    5.1962    0.0000 R   0  0  0  0  0  1  0  0  0  1  0  0
    1.5000    5.1962    0.0000 C   0  0  0  0  0  0  0  0  0  0  0  0
    3.0000    5.1962    0.0000 O   0  0  0  0  0  0  0  0  0  0  0  0
    0.7500    6.4952    0.0000 R   0  0  0  0  0  1  0  0  0  2  0  0
  1  2  1  0
  2  3  2  0
  3  4  1  0
  4  5  2  0
  5  6  1  0
  6  7  2  0
  7  8  1  0
  9  8  1  6
  9 10  1  0
 10 11  1  0
  9 12  1  0
 12 13  2  0
 12 14  1  0
  7  2  1  0
M  END
>  <id>  (197) 
cd61217c-c5b6-492f-84d3-fe7c64fe2249

>  <Version>  (197) 
0

>  <Alias>  (197) 
2MePhe

>  <Type>  (197) 
amino_acid

>  <Smiles>  (197) 
Cc1ccccc1C[C@H](N[*:1])C(=O)[*:2]

>  <ProtectedSmiles>  (197) 
Cc1ccccc1C[C@H](NC(=O)OCC1c2ccccc2-c2ccccc21)C(=O)O

>  <CAS>  (197) 
211637-75-1

>  <User>  (197) 
sevan.h

>  <StereoComment>  (197) 
as drawn

>  <Name>  (197) 
Fmoc-2-methyl-L-phenylalanine

>  <Code>  (197) 
2MePhe

>  <AliasLowerCase>  (197) 
2mephe

>  <LatestVersion>  (197) 
0.0

>  <createdAt>  (197) 
2026-01-14T12:16:19.169Z

>  <updatedAt>  (197) 
2026-01-14T12:16:19.169Z

>  <NumRotatableBonds>  (197) 
4

>  <is_N_methyl>  (197) 
False

>  <is_a_methyl>  (197) 
False

>  <is_alpha_aa>  (197) 
True

>  <is_beta_aa>  (197) 
False

>  <is_S100_aa>  (197) 
False

>  <Murcko_SMILES>  (197) 
c1ccccc1

$$$$

     RDKit          2D

 13 13  0  0  0  0  0  0  0  0999 V2000
    6.0000    0.0000    0.0000 O   0  0  0  0  0  0  0  0  0  0  0  0
    5.2500   -1.2990    0.0000 C   0  0  0  0  0  0  0  0  0  0  0  0
    3.7500   -1.2990    0.0000 C   0  0  0  0  0  0  0  0  0  0  0  0
    3.0000    0.0000    0.0000 C   0  0  0  0  0  0  0  0  0  0  0  0
    1.5000    0.0000    0.0000 C   0  0  0  0  0  0  0  0  0  0  0  0
    0.7500   -1.2990    0.0000 C   0  0  0  0  0  0  0  0  0  0  0  0
   -0.7500   -1.2990    0.0000 C   0  0  0  0  0  0  0  0  0  0  0  0
   -1.5000    0.0000    0.0000 C   0  0  0  0  0  0  0  0  0  0  0  0
   -0.7500    1.2990    0.0000 N   0  0  0  0  0  0  0  0  0  0  0  0
    0.7500    1.2990    0.0000 C   0  0  0  0  0  0  0  0  0  0  0  0
    3.0000   -2.5981    0.0000 N   0  0  0  0  0  0  0  0  0  0  0  0
    3.7500   -3.8971    0.0000 R   0  0  0  0  0  1  0  0  0  1  0  0
    6.0000   -2.5981    0.0000 R   0  0  0  0  0  1  0  0  0  2  0  0
  1  2  2  0
  2  3  1  0
  3  4  1  1
  4  5  1  0
  5  6  2  0
  6  7  1  0
  7  8  2  0
  8  9  1  0
  9 10  2  0
  3 11  1  0
 11 12  1  0
  2 13  1  0
 10  5  1  0
M  END
>  <id>  (198) 
c1e9689c-6b0b-4e40-8d12-6b2d510fe223

>  <Version>  (198) 
0

>  <Alias>  (198) 
3Pyr

>  <Type>  (198) 
amino_acid

>  <Smiles>  (198) 
O=C([C@H](Cc1cccnc1)N[*:1])[*:2]

>  <ProtectedSmiles>  (198) 
O=C(N[C@@H](Cc1cccnc1)C(=O)O)OCC1c2ccccc2-c2ccccc21

>  <CAS>  (198) 
175453-07-3

>  <User>  (198) 
sevan.h

>  <StereoComment>  (198) 
as drawn

>  <Name>  (198) 
Fmoc-L-(3-pyridyl)alanine

>  <Code>  (198) 
3Pyr

>  <AliasLowerCase>  (198) 
3pyr

>  <LatestVersion>  (198) 
0.0

>  <createdAt>  (198) 
2026-01-14T12:17:30.287Z

>  <updatedAt>  (198) 
2026-01-14T12:17:30.287Z

>  <NumRotatableBonds>  (198) 
4

>  <is_N_methyl>  (198) 
False

>  <is_a_methyl>  (198) 
False

>  <is_alpha_aa>  (198) 
True

>  <is_beta_aa>  (198) 
False

>  <is_S100_aa>  (198) 
False

>  <Murcko_SMILES>  (198) 
c1ccncc1

$$$$

     RDKit          2D

 11 10  0  0  0  0  0  0  0  0999 V2000
    3.8971    3.3481    0.0000 C   0  0  0  0  0  0  0  0  0  0  0  0
    3.1471    2.0490    0.0000 C   0  0  0  0  0  0  0  0  0  0  0  0
    3.8971    0.7500    0.0000 C   0  0  0  0  0  0  0  0  0  0  0  0
    4.6471   -0.5490    0.0000 C   0  0  0  0  0  0  0  0  0  0  0  0
    6.1471   -0.5490    0.0000 C   0  0  0  0  0  0  0  0  0  0  0  0
    2.5981   -0.0000    0.0000 C   0  0  0  0  0  0  0  0  0  0  0  0
    1.2990    0.7500    0.0000 N   0  0  0  0  0  0  0  0  0  0  0  0
    0.0000    0.0000    0.0000 R   0  0  0  0  0  1  0  0  0  1  0  0
    5.1962    1.5000    0.0000 C   0  0  0  0  0  0  0  0  0  0  0  0
    6.4952    0.7500    0.0000 O   0  0  0  0  0  0  0  0  0  0  0  0
    5.1962    3.0000    0.0000 R   0  0  0  0  0  1  0  0  0  2  0  0
  1  2  1  0
  2  3  1  0
  3  4  1  0
  4  5  1  0
  3  6  1  0
  6  7  1  0
  7  8  1  0
  3  9  1  0
  9 10  2  0
  9 11  1  0
M  END
>  <id>  (199) 
d0f3da49-998a-4c1a-ba97-6ba53e96c804

>  <Version>  (199) 
0

>  <Alias>  (199) 
Et2-B-Ala

>  <Type>  (199) 
amino_acid

>  <Smiles>  (199) 
CCC(CC)(CN[*:1])C(=O)[*:2]

>  <ProtectedSmiles>  (199) 
CCC(CC)(CNC(=O)OCC1c2ccccc2-c2ccccc21)C(=O)O

>  <CAS>  (199) 
1553069-09-2

>  <User>  (199) 
angelica.l

>  <StereoComment>  (199) 
as drawn

>  <Name>  (199) 
2-ethyl-2-((Fmoc-amino)methyl)butanoic acid

>  <Code>  (199) 
Et2-B-Ala

>  <AliasLowerCase>  (199) 
et2-b-ala

>  <LatestVersion>  (199) 
0.0

>  <createdAt>  (199) 
2026-01-14T11:36:52.392Z

>  <updatedAt>  (199) 
2026-01-14T11:36:52.392Z

>  <NumRotatableBonds>  (199) 
5

>  <is_N_methyl>  (199) 
False

>  <is_a_methyl>  (199) 
False

>  <is_alpha_aa>  (199) 
False

>  <is_beta_aa>  (199) 
True

>  <is_S100_aa>  (199) 
False

>  <Murcko_SMILES>  (199) 


$$$$

     RDKit          2D

 11 11  0  0  0  0  0  0  0  0999 V2000
    3.7500    1.2990    0.0000 O   0  0  0  0  0  0  0  0  0  0  0  0
    3.0000    0.0000    0.0000 C   0  0  0  0  0  0  0  0  0  0  0  0
    1.5000    0.0000    0.0000 C   0  0  0  0  0  0  0  0  0  0  0  0
    0.7500   -1.2990    0.0000 C   0  0  0  0  0  0  0  0  0  0  0  0
   -0.7500   -1.2990    0.0000 C   0  0  0  0  0  0  0  0  0  0  0  0
   -1.5000    0.0000    0.0000 C   0  0  0  0  0  0  0  0  0  0  0  0
   -3.0000    0.0000    0.0000 N   0  0  0  0  0  0  0  0  0  0  0  0
   -3.7500    1.2990    0.0000 R   0  0  0  0  0  1  0  0  0  1  0  0
   -0.7500    1.2990    0.0000 C   0  0  0  0  0  0  0  0  0  0  0  0
    0.7500    1.2990    0.0000 C   0  0  0  0  0  0  0  0  0  0  0  0
    3.7500   -1.2990    0.0000 R   0  0  0  0  0  1  0  0  0  2  0  0
  1  2  2  0
  2  3  1  0
  3  4  1  0
  4  5  1  0
  5  6  1  0
  6  7  1  0
  7  8  1  0
  6  9  1  0
  9 10  1  0
  2 11  1  0
 10  3  1  0
M  END
>  <id>  (200) 
5785ee3d-ab68-4d66-a440-7f8d0e8726c5

>  <Version>  (200) 
0

>  <Alias>  (200) 
1,4-ACHC

>  <Type>  (200) 
amino_acid

>  <Smiles>  (200) 
O=C(C1CCC(N[*:1])CC1)[*:2]

>  <ProtectedSmiles>  (200) 
O=C(NC1CCC(C(=O)O)CC1)OCC1c2ccccc2-c2ccccc21

>  <CAS>  (200) 
583870-83-1

>  <User>  (200) 
mischa.s

>  <StereoComment>  (200) 
as drawn

>  <Name>  (200) 
4-{[(9H-fluoren-9-ylmethoxy)carbonyl]amino}cyclohexane-1-carboxylic acid

>  <Code>  (200) 
1,4-ACHC

>  <AliasLowerCase>  (200) 
1,4-achc

>  <LatestVersion>  (200) 
0.0

>  <createdAt>  (200) 
2026-01-14T11:36:23.181Z

>  <updatedAt>  (200) 
2026-01-14T11:36:23.181Z

>  <NumRotatableBonds>  (200) 
2

>  <is_N_methyl>  (200) 
False

>  <is_a_methyl>  (200) 
False

>  <is_alpha_aa>  (200) 
False

>  <is_beta_aa>  (200) 
False

>  <is_S100_aa>  (200) 
False

>  <Murcko_SMILES>  (200) 
C1CCCCC1

$$$$

     RDKit          2D

 14 14  0  0  0  0  0  0  0  0999 V2000
    3.0000   -2.5981    0.0000 O   0  0  0  0  0  0  0  0  0  0  0  0
    3.7500   -1.2990    0.0000 C   0  0  0  0  0  0  0  0  0  0  0  0
    3.0000    0.0000    0.0000 C   0  0  0  0  0  0  0  0  0  0  0  0
    3.7500    1.2990    0.0000 N   0  0  0  0  0  0  0  0  0  0  0  0
    5.2500    1.2990    0.0000 R   0  0  0  0  0  1  0  0  0  1  0  0
    1.5000    0.0000    0.0000 C   0  0  0  0  0  0  0  0  0  0  0  0
    0.7500   -1.2990    0.0000 C   0  0  0  0  0  0  0  0  0  0  0  0
   -0.7500   -1.2990    0.0000 C   0  0  0  0  0  0  0  0  0  0  0  0
   -1.5000    0.0000    0.0000 C   0  0  0  0  0  0  0  0  0  0  0  0
   -2.6491   -0.9642    0.0000 F   0  0  0  0  0  0  0  0  0  0  0  0
   -2.6491    0.9642    0.0000 F   0  0  0  0  0  0  0  0  0  0  0  0
   -0.7500    1.2990    0.0000 C   0  0  0  0  0  0  0  0  0  0  0  0
    0.7500    1.2990    0.0000 C   0  0  0  0  0  0  0  0  0  0  0  0
    5.2500   -1.2990    0.0000 R   0  0  0  0  0  1  0  0  0  2  0  0
  1  2  2  0
  2  3  1  0
  3  4  1  6
  4  5  1  0
  3  6  1  0
  6  7  1  0
  7  8  1  0
  8  9  1  0
  9 10  1  0
  9 11  1  0
  9 12  1  0
 12 13  1  0
  2 14  1  0
 13  6  1  0
M  END
>  <id>  (201) 
3250e3b7-22bd-41bd-a93e-93437ec230ad

>  <Version>  (201) 
0

>  <Alias>  (201) 
6-diF-Chg

>  <Type>  (201) 
amino_acid

>  <Smiles>  (201) 
O=C([C@@H](N[*:1])C1CCC(F)(F)CC1)[*:2]

>  <ProtectedSmiles>  (201) 
O=C(N[C@H](C(=O)O)C1CCC(F)(F)CC1)OCC1c2ccccc2-c2ccccc21

>  <CAS>  (201) 
2248184-59-8

>  <User>  (201) 
emile.b

>  <StereoComment>  (201) 
as drawn

>  <Name>  (201) 
(2S)-2-(4,4-difluorocyclohexyl)-2-(9H-fluoren-9-ylmethoxycarbonylamino)acetic acid

>  <Code>  (201) 
6-diF-Chg

>  <AliasLowerCase>  (201) 
6-dif-chg

>  <LatestVersion>  (201) 
0.0

>  <createdAt>  (201) 
2026-01-14T11:33:21.067Z

>  <updatedAt>  (201) 
2026-01-14T11:33:21.067Z

>  <NumRotatableBonds>  (201) 
3

>  <is_N_methyl>  (201) 
False

>  <is_a_methyl>  (201) 
False

>  <is_alpha_aa>  (201) 
True

>  <is_beta_aa>  (201) 
False

>  <is_S100_aa>  (201) 
False

>  <Murcko_SMILES>  (201) 
C1CCCCC1

$$$$

     RDKit          2D

 15 15  0  0  0  0  0  0  0  0999 V2000
    3.5260    1.2990    0.0000 O   0  0  0  0  0  0  0  0  0  0  0  0
    2.7760    0.0000    0.0000 C   0  0  0  0  0  0  0  0  0  0  0  0
    3.5260   -1.2990    0.0000 C   0  0  0  0  0  0  0  0  0  0  0  0
    5.0260   -1.2990    0.0000 C   0  0  0  0  0  0  0  0  0  0  0  0
    5.7760   -2.5981    0.0000 C   0  0  0  0  0  0  0  0  0  0  0  0
    5.0260   -3.8971    0.0000 N   0  0  0  0  0  0  0  0  0  0  0  0
    5.7760   -5.1962    0.0000 R   0  0  0  0  0  1  0  0  0  1  0  0
    7.2760   -2.5981    0.0000 C   0  0  0  0  0  0  0  0  0  0  0  0
    8.0260   -1.2990    0.0000 O   0  0  0  0  0  0  0  0  0  0  0  0
    8.0260   -3.8971    0.0000 R   0  0  0  0  0  1  0  0  0  2  0  0
    1.2760    0.0000    0.0000 N   0  0  0  0  0  0  0  0  0  0  0  0
    0.3943    1.2135    0.0000 C   0  0  0  0  0  0  0  0  0  0  0  0
   -1.0323    0.7500    0.0000 C   0  0  0  0  0  0  0  0  0  0  0  0
   -1.0323   -0.7500    0.0000 C   0  0  0  0  0  0  0  0  0  0  0  0
    0.3943   -1.2135    0.0000 C   0  0  0  0  0  0  0  0  0  0  0  0
  1  2  2  0
  2  3  1  0
  3  4  1  0
  5  4  1  6
  5  6  1  0
  6  7  1  0
  5  8  1  0
  8  9  2  0
  8 10  1  0
  2 11  1  0
 11 12  1  0
 12 13  1  0
 13 14  1  0
 14 15  1  0
 15 11  1  0
M  END
>  <id>  (202) 
8ba312c5-528f-4134-bd8a-4d53f30ce1b7

>  <Version>  (202) 
0

>  <Alias>  (202) 
D-Gln(Pyr)

>  <Type>  (202) 
amino_acid

>  <Smiles>  (202) 
O=C(CC[C@@H](N[*:1])C(=O)[*:2])N1CCCC1

>  <ProtectedSmiles>  (202) 
O=C(N[C@H](CCC(=O)N1CCCC1)C(=O)O)OCC1c2ccccc2-c2ccccc21

>  <CAS>  (202) 
2773434-24-3

>  <User>  (202) 
sevan.h

>  <StereoComment>  (202) 
as drawn

>  <Name>  (202) 
Fmoc-D-Gln(Pyrrolidine)

>  <Code>  (202) 
D-Gln(Pyr)

>  <AliasLowerCase>  (202) 
d-gln(pyr)

>  <LatestVersion>  (202) 
0.0

>  <createdAt>  (202) 
2026-01-14T11:38:07.902Z

>  <updatedAt>  (202) 
2026-01-14T11:38:07.902Z

>  <NumRotatableBonds>  (202) 
5

>  <is_N_methyl>  (202) 
False

>  <is_a_methyl>  (202) 
False

>  <is_alpha_aa>  (202) 
True

>  <is_beta_aa>  (202) 
False

>  <is_S100_aa>  (202) 
False

>  <Murcko_SMILES>  (202) 
C1CCNC1

$$$$

     RDKit          2D

 10  9  0  0  0  0  0  0  0  0999 V2000
    9.0933    2.2500    0.0000 O   0  0  0  0  0  0  0  0  0  0  0  0
    9.0933    0.7500    0.0000 C   0  0  0  0  0  0  0  0  0  0  0  0
    7.7942   -0.0000    0.0000 C   0  0  0  0  0  0  0  0  0  0  0  0
    6.4952    0.7500    0.0000 C   0  0  0  0  0  0  0  0  0  0  0  0
    5.1962   -0.0000    0.0000 O   0  0  0  0  0  0  0  0  0  0  0  0
    3.8971    0.7500    0.0000 C   0  0  0  0  0  0  0  0  0  0  0  0
    2.5981   -0.0000    0.0000 C   0  0  0  0  0  0  0  0  0  0  0  0
    1.2990    0.7500    0.0000 N   0  0  0  0  0  0  0  0  0  0  0  0
    0.0000    0.0000    0.0000 R   0  0  0  0  0  1  0  0  0  1  0  0
   10.3923   -0.0000    0.0000 R   0  0  0  0  0  1  0  0  0  2  0  0
  1  2  2  0
  2  3  1  0
  3  4  1  0
  4  5  1  0
  5  6  1  0
  6  7  1  0
  7  8  1  0
  8  9  1  0
  2 10  1  0
M  END
>  <id>  (203) 
dba1fd2c-531e-4d35-a923-a068aea549a5

>  <Version>  (203) 
0

>  <Alias>  (203) 
AEP

>  <Type>  (203) 
amino_acid

>  <Smiles>  (203) 
O=C(CCOCCN[*:1])[*:2]

>  <ProtectedSmiles>  (203) 
O=C(O)CCOCCNC(=O)OCC1c2ccccc2-c2ccccc21

>  <CAS>  (203) 
1654740-73-4

>  <User>  (203) 
angelica.l

>  <StereoComment>  (203) 
as drawn

>  <Name>  (203) 
3-(2-((((9H-Fluoren-9-yl)methoxy)carbonyl)amino)ethoxy)propanoic acid

>  <Code>  (203) 
AEP

>  <AliasLowerCase>  (203) 
aep

>  <LatestVersion>  (203) 
0.0

>  <createdAt>  (203) 
2026-01-14T11:33:36.101Z

>  <updatedAt>  (203) 
2026-01-14T11:33:36.101Z

>  <NumRotatableBonds>  (203) 
6

>  <is_N_methyl>  (203) 
False

>  <is_a_methyl>  (203) 
False

>  <is_alpha_aa>  (203) 
False

>  <is_beta_aa>  (203) 
False

>  <is_S100_aa>  (203) 
False

>  <Murcko_SMILES>  (203) 


$$$$

     RDKit          2D

  9  8  0  0  0  0  0  0  0  0999 V2000
    1.2990   -2.2500    0.0000 O   0  0  0  0  0  0  0  0  0  0  0  0
    2.5981   -1.5000    0.0000 C   0  0  0  0  0  0  0  0  0  0  0  0
    2.5981   -0.0000    0.0000 C   0  0  0  0  0  0  0  0  0  0  0  0
    3.8971    0.7500    0.0000 C   0  0  0  0  0  0  0  0  0  0  0  0
    5.1962   -0.0000    0.0000 C   0  0  0  0  0  0  0  0  0  0  0  0
    6.4952    0.7500    0.0000 O   0  0  0  0  0  0  0  0  0  0  0  0
    1.2990    0.7500    0.0000 N   0  0  0  0  0  0  0  0  0  0  0  0
    0.0000    0.0000    0.0000 R   0  0  0  0  0  1  0  0  0  1  0  0
    3.8971   -2.2500    0.0000 R   0  0  0  0  0  1  0  0  0  2  0  0
  1  2  2  0
  2  3  1  0
  3  4  1  1
  4  5  1  0
  5  6  1  0
  3  7  1  0
  7  8  1  0
  2  9  1  0
M  END
>  <id>  (204) 
59dcaef5-7424-4d3a-82a8-c3c8d1ba84cb

>  <Version>  (204) 
0

>  <Alias>  (204) 
hSer

>  <Type>  (204) 
amino_acid

>  <Smiles>  (204) 
O=C([C@H](CCO)N[*:1])[*:2]

>  <ProtectedSmiles>  (204) 
O=C(N[C@@H](CCOC(c1ccccc1)(c1ccccc1)c1ccccc1)C(=O)O)OCC1c2ccccc2-c2ccccc21

>  <CAS>  (204) 
111061-55-3

>  <User>  (204) 
sevan.h

>  <StereoComment>  (204) 
as drawn

>  <Name>  (204) 
Fmoc-homoSerine(OTrt)-OH

>  <Code>  (204) 
hSer

>  <AliasLowerCase>  (204) 
hser

>  <LatestVersion>  (204) 
0.0

>  <createdAt>  (204) 
2026-01-14T12:15:48.333Z

>  <updatedAt>  (204) 
2026-01-14T12:15:48.333Z

>  <NumRotatableBonds>  (204) 
4

>  <is_N_methyl>  (204) 
False

>  <is_a_methyl>  (204) 
False

>  <is_alpha_aa>  (204) 
True

>  <is_beta_aa>  (204) 
False

>  <is_S100_aa>  (204) 
False

>  <Murcko_SMILES>  (204) 


$$$$

     RDKit          2D

 12 12  0  0  0  0  0  0  0  0999 V2000
    3.7500    1.2990    0.0000 O   0  0  0  0  0  0  0  0  0  0  0  0
    3.0000    0.0000    0.0000 C   0  0  0  0  0  0  0  0  0  0  0  0
    1.5000    0.0000    0.0000 C   0  0  0  0  0  0  0  0  0  0  0  0
    0.7500   -1.2990    0.0000 C   0  0  0  0  0  0  0  0  0  0  0  0
   -0.7500   -1.2990    0.0000 N   0  0  0  0  0  0  0  0  0  0  0  0
   -1.5000    0.0000    0.0000 C   0  0  0  0  0  0  0  0  0  0  0  0
   -0.7500    1.2990    0.0000 C   0  0  0  0  0  0  0  0  0  0  0  0
   -1.5000    2.5981    0.0000 C   0  0  0  0  0  0  0  0  0  0  0  0
   -0.7500    3.8971    0.0000 N   0  0  0  0  0  0  0  0  0  0  0  0
   -1.5000    5.1962    0.0000 R   0  0  0  0  0  1  0  0  0  1  0  0
    0.7500    1.2990    0.0000 C   0  0  0  0  0  0  0  0  0  0  0  0
    3.7500   -1.2990    0.0000 R   0  0  0  0  0  1  0  0  0  2  0  0
  1  2  2  0
  2  3  1  0
  3  4  2  0
  4  5  1  0
  5  6  2  0
  6  7  1  0
  7  8  1  0
  8  9  1  0
  9 10  1  0
  7 11  2  0
  2 12  1  0
 11  3  1  0
M  END
>  <id>  (205) 
fc45ff7e-1522-4195-ad5d-62751a9aae67

>  <Version>  (205) 
0

>  <Alias>  (205) 
5AMNA

>  <Type>  (205) 
amino_acid

>  <Smiles>  (205) 
O=C(c1cncc(CN[*:1])c1)[*:2]

>  <ProtectedSmiles>  (205) 
O=C(NCc1cncc(C(=O)O)c1)OCC1c2ccccc2-c2ccccc21

>  <CAS>  (205) 
2866317-45-5

>  <User>  (205) 
cs@orbismedicines.com

>  <StereoComment>  (205) 
as drawn

>  <Name>  (205) 
5-[({[(9H-fluoren-9-yl)methoxy]carbonyl}amino)methyl]pyridine-3-carboxylic acid

>  <Code>  (205) 
5AMNA

>  <AliasLowerCase>  (205) 
5amna

>  <LatestVersion>  (205) 
0.0

>  <createdAt>  (205) 
2026-02-04T08:48:26.678Z

>  <updatedAt>  (205) 
2026-02-04T08:48:26.678Z

>  <NumRotatableBonds>  (205) 
3

>  <is_N_methyl>  (205) 
False

>  <is_a_methyl>  (205) 
False

>  <is_alpha_aa>  (205) 
False

>  <is_beta_aa>  (205) 
False

>  <is_S100_aa>  (205) 
False

>  <Murcko_SMILES>  (205) 
c1ccncc1

$$$$

     RDKit          2D

 10 10  0  0  0  0  0  0  0  0999 V2000
    3.5260    1.2990    0.0000 O   0  0  0  0  0  0  0  0  0  0  0  0
    2.7760    0.0000    0.0000 C   0  0  0  0  0  0  0  0  0  0  0  0
    1.2760    0.0000    0.0000 C   0  0  0  0  0  0  0  0  0  0  0  0
    0.3943    1.2135    0.0000 C   0  0  0  0  0  0  0  0  0  0  0  0
   -1.0323    0.7500    0.0000 C   0  0  0  0  0  0  0  0  0  0  0  0
   -1.0323   -0.7500    0.0000 C   0  0  0  0  0  0  0  0  0  0  0  0
    0.3943   -1.2135    0.0000 C   0  0  0  0  0  0  0  0  0  0  0  0
    0.8578   -2.6401    0.0000 N   0  0  0  0  0  0  0  0  0  0  0  0
   -0.1459   -3.7548    0.0000 R   0  0  0  0  0  1  0  0  0  1  0  0
    3.5260   -1.2990    0.0000 R   0  0  0  0  0  1  0  0  0  2  0  0
  1  2  2  0
  3  2  1  1
  3  4  1  0
  4  5  1  0
  5  6  1  0
  6  7  1  0
  7  8  1  6
  8  9  1  0
  2 10  1  0
  7  3  1  0
M  END
>  <id>  (206) 
56edf70a-49f7-4651-b0c9-543ca0d75887

>  <Version>  (206) 
0

>  <Alias>  (206) 
t1,2ACP

>  <Type>  (206) 
amino_acid

>  <Smiles>  (206) 
O=C([C@@H]1CCC[C@H]1N[*:1])[*:2]

>  <ProtectedSmiles>  (206) 
O=C(N[C@@H]1CCC[C@H]1C(=O)O)OCC1c2ccccc2-c2ccccc21

>  <CAS>  (206) 
359586-69-9

>  <User>  (206) 
sevan.h

>  <StereoComment>  (206) 
as drawn

>  <Name>  (206) 
(1R,2R)-Fmoc-2-aminocyclopentane carboxylic acid

>  <Code>  (206) 
t1,2ACP

>  <AliasLowerCase>  (206) 
t1,2acp

>  <LatestVersion>  (206) 
0.0

>  <createdAt>  (206) 
2026-01-14T12:15:30.900Z

>  <updatedAt>  (206) 
2026-01-14T12:15:30.900Z

>  <NumRotatableBonds>  (206) 
2

>  <is_N_methyl>  (206) 
False

>  <is_a_methyl>  (206) 
False

>  <is_alpha_aa>  (206) 
False

>  <is_beta_aa>  (206) 
True

>  <is_S100_aa>  (206) 
False

>  <Murcko_SMILES>  (206) 
C1CCCC1

$$$$

     RDKit          2D

 13 13  0  0  0  0  0  0  0  0999 V2000
    5.7760    0.0000    0.0000 O   0  0  0  0  0  0  0  0  0  0  0  0
    5.0260   -1.2990    0.0000 C   0  0  0  0  0  0  0  0  0  0  0  0
    3.5260   -1.2990    0.0000 C   0  0  0  0  0  0  0  0  0  0  0  0
    2.7760    0.0000    0.0000 C   0  0  0  0  0  0  0  0  0  0  0  0
    3.5260    1.2990    0.0000 C   0  0  0  0  0  0  0  0  0  0  0  0
    5.0260    1.2990    0.0000 N   0  0  0  0  0  0  0  0  0  0  0  0
    5.7760    2.5981    0.0000 R   0  0  0  0  0  1  0  0  0  1  0  0
    1.2760    0.0000    0.0000 C   0  0  0  0  0  0  0  0  0  0  0  0
    0.3943    1.2135    0.0000 C   0  0  0  0  0  0  0  0  0  0  0  0
   -1.0323    0.7500    0.0000 C   0  0  0  0  0  0  0  0  0  0  0  0
   -1.0323   -0.7500    0.0000 C   0  0  0  0  0  0  0  0  0  0  0  0
    0.3943   -1.2135    0.0000 C   0  0  0  0  0  0  0  0  0  0  0  0
    5.7760   -2.5981    0.0000 R   0  0  0  0  0  1  0  0  0  2  0  0
  1  2  2  0
  2  3  1  0
  3  4  1  0
  4  5  1  0
  5  6  1  0
  6  7  1  0
  4  8  1  0
  8  9  1  0
  9 10  1  0
 10 11  1  0
 11 12  1  0
  2 13  1  0
 12  8  1  0
M  END
>  <id>  (207) 
1e3b9485-e217-46e9-bb2a-ab16e275d1e4

>  <Version>  (207) 
0

>  <Alias>  (207) 
CPentBuCA

>  <Type>  (207) 
amino_acid

>  <Smiles>  (207) 
O=C(CC(CN[*:1])C1CCCC1)[*:2]

>  <ProtectedSmiles>  (207) 
O=C(O)CC(CNC(=O)OCC1c2ccccc2-c2ccccc21)C1CCCC1

>  <CAS>  (207) 
2137851-66-0

>  <User>  (207) 
Sevan.habeshian@orbismedicines.com

>  <StereoComment>  (207) 
as drawn

>  <Name>  (207) 
N/A

>  <Code>  (207) 
CPentBuCA

>  <AliasLowerCase>  (207) 
cpentbuca

>  <LatestVersion>  (207) 
0.0

>  <createdAt>  (207) 
2026-02-13T09:56:35.522Z

>  <updatedAt>  (207) 
2026-02-13T09:56:35.522Z

>  <NumRotatableBonds>  (207) 
5

>  <is_N_methyl>  (207) 
False

>  <is_a_methyl>  (207) 
False

>  <is_alpha_aa>  (207) 
False

>  <is_beta_aa>  (207) 
False

>  <is_S100_aa>  (207) 
False

>  <Murcko_SMILES>  (207) 
C1CCCC1

$$$$

     RDKit          2D

 13 13  0  0  0  0  0  0  0  0999 V2000
    6.0000    0.0000    0.0000 O   0  0  0  0  0  0  0  0  0  0  0  0
    5.2500   -1.2990    0.0000 C   0  0  0  0  0  0  0  0  0  0  0  0
    3.7500   -1.2990    0.0000 C   0  0  0  0  0  0  0  0  0  0  0  0
    3.0000    0.0000    0.0000 C   0  0  0  0  0  0  0  0  0  0  0  0
    1.5000    0.0000    0.0000 C   0  0  0  0  0  0  0  0  0  0  0  0
    0.7500   -1.2990    0.0000 C   0  0  0  0  0  0  0  0  0  0  0  0
   -0.7500   -1.2990    0.0000 C   0  0  0  0  0  0  0  0  0  0  0  0
   -1.5000    0.0000    0.0000 C   0  0  0  0  0  0  0  0  0  0  0  0
   -0.7500    1.2990    0.0000 C   0  0  0  0  0  0  0  0  0  0  0  0
    0.7500    1.2990    0.0000 C   0  0  0  0  0  0  0  0  0  0  0  0
    3.0000   -2.5981    0.0000 N   0  0  0  0  0  0  0  0  0  0  0  0
    3.7500   -3.8971    0.0000 R   0  0  0  0  0  1  0  0  0  1  0  0
    6.0000   -2.5981    0.0000 R   0  0  0  0  0  1  0  0  0  2  0  0
  1  2  2  0
  2  3  1  0
  3  4  1  0
  4  5  1  0
  5  6  2  0
  6  7  1  0
  7  8  2  0
  8  9  1  0
  9 10  2  0
  3 11  1  0
 11 12  1  0
  2 13  1  0
 10  5  1  0
M  END
>  <id>  (208) 
f35138f3-f28e-4ee7-b007-e67facff9dc6

>  <Version>  (208) 
0

>  <Alias>  (208) 
rac-Phe

>  <Type>  (208) 
amino_acid

>  <Smiles>  (208) 
O=C(C(Cc1ccccc1)N[*:1])[*:2]

>  <ProtectedSmiles>  (208) 
O=C(NC(Cc1ccccc1)C(=O)O)OCC1c2ccccc2-c2ccccc21

>  <CAS>  (208) 
100750-05-8

>  <User>  (208) 
clement.gensous@orbismedicines.com

>  <StereoComment>  (208) 
as drawn

>  <Name>  (208) 
rac-Phe

>  <Code>  (208) 
rac-Phe

>  <AliasLowerCase>  (208) 
rac-phe

>  <LatestVersion>  (208) 
0.0

>  <createdAt>  (208) 
2026-01-15T09:28:49.291Z

>  <updatedAt>  (208) 
2026-01-15T09:28:49.291Z

>  <NumRotatableBonds>  (208) 
4

>  <is_N_methyl>  (208) 
False

>  <is_a_methyl>  (208) 
False

>  <is_alpha_aa>  (208) 
True

>  <is_beta_aa>  (208) 
False

>  <is_S100_aa>  (208) 
False

>  <Murcko_SMILES>  (208) 
c1ccccc1

$$$$

     RDKit          2D

  9  8  0  0  0  0  0  0  0  0999 V2000
    6.4952    0.7500    0.0000 C   0  0  0  0  0  0  0  0  0  0  0  0
    5.1962   -0.0000    0.0000 C   0  0  0  0  0  0  0  0  0  0  0  0
    3.8971    0.7500    0.0000 C   0  0  0  0  0  0  0  0  0  0  0  0
    2.5981   -0.0000    0.0000 C   0  0  0  0  0  0  0  0  0  0  0  0
    1.2990    0.7500    0.0000 N   0  0  0  0  0  0  0  0  0  0  0  0
    0.0000    0.0000    0.0000 R   0  0  0  0  0  1  0  0  0  1  0  0
    2.5981   -1.5000    0.0000 C   0  0  0  0  0  0  0  0  0  0  0  0
    1.2990   -2.2500    0.0000 O   0  0  0  0  0  0  0  0  0  0  0  0
    3.8971   -2.2500    0.0000 R   0  0  0  0  0  1  0  0  0  2  0  0
  1  2  2  0
  2  3  1  0
  4  3  1  1
  4  5  1  0
  5  6  1  0
  4  7  1  0
  7  8  2  0
  7  9  1  0
M  END
>  <id>  (209) 
5dd26ee1-a919-46ea-94b1-3bf030432d01

>  <Version>  (209) 
0

>  <Alias>  (209) 
AlGly

>  <Type>  (209) 
amino_acid

>  <Smiles>  (209) 
C=CC[C@H](N[*:1])C(=O)[*:2]

>  <ProtectedSmiles>  (209) 
C=CC[C@H](NC(=O)OCC1c2ccccc2-c2ccccc21)C(=O)O

>  <CAS>  (209) 
146549-21-5

>  <User>  (209) 
sevan.h

>  <StereoComment>  (209) 
as drawn

>  <Name>  (209) 
Fmoc-L-allylglycine

>  <Code>  (209) 
AlGly

>  <AliasLowerCase>  (209) 
algly

>  <LatestVersion>  (209) 
0.0

>  <createdAt>  (209) 
2026-01-14T12:16:07.218Z

>  <updatedAt>  (209) 
2026-01-14T12:16:07.218Z

>  <NumRotatableBonds>  (209) 
4

>  <is_N_methyl>  (209) 
False

>  <is_a_methyl>  (209) 
False

>  <is_alpha_aa>  (209) 
True

>  <is_beta_aa>  (209) 
False

>  <is_S100_aa>  (209) 
False

>  <Murcko_SMILES>  (209) 


$$$$

     RDKit          2D

 10  9  0  0  0  0  0  0  0  0999 V2000
    5.1962   -1.5000    0.0000 O   0  0  0  0  0  0  0  0  0  0  0  0
    5.1962   -0.0000    0.0000 C   0  0  0  0  0  0  0  0  0  0  0  0
    6.4952    0.7500    0.0000 O   0  0  0  0  0  0  0  0  0  0  0  0
    3.8971    0.7500    0.0000 C   0  0  0  0  0  0  0  0  0  0  0  0
    2.5981   -0.0000    0.0000 C   0  0  0  0  0  0  0  0  0  0  0  0
    1.2990    0.7500    0.0000 C   0  0  0  0  0  0  0  0  0  0  0  0
    1.2990    2.2500    0.0000 O   0  0  0  0  0  0  0  0  0  0  0  0
    0.0000    0.0000    0.0000 R   0  0  0  0  0  1  0  0  0  2  0  0
    3.8971    2.2500    0.0000 N   0  0  0  0  0  0  0  0  0  0  0  0
    5.1962    3.0000    0.0000 R   0  0  0  0  0  1  0  0  0  1  0  0
  1  2  2  0
  2  3  1  0
  2  4  1  0
  4  5  1  1
  5  6  1  0
  6  7  2  0
  6  8  1  0
  4  9  1  0
  9 10  1  0
M  END
>  <id>  (210) 
4cb25bea-76cc-4ad9-b834-4eeaa9db3922

>  <Version>  (210) 
0

>  <Alias>  (210) 
D-Asp(OtBu)

>  <Type>  (210) 
amino_acid

>  <Smiles>  (210) 
O=C(O)[C@@H](CC(=O)[*:2])N[*:1]

>  <ProtectedSmiles>  (210) 
CC(C)(C)OC(=O)[C@@H](CC(=O)O)NC(=O)OCC1c2ccccc2-c2ccccc21

>  <CAS>  (210) 
134098-70-7

>  <User>  (210) 
sevan.h

>  <StereoComment>  (210) 
as drawn

>  <Name>  (210) 
 Fmoc-D-asp-otbu

>  <Code>  (210) 
D-Asp(OtBu)

>  <AliasLowerCase>  (210) 
d-asp(otbu)

>  <LatestVersion>  (210) 
0.0

>  <createdAt>  (210) 
2026-01-14T12:15:33.703Z

>  <updatedAt>  (210) 
2026-01-14T12:15:33.703Z

>  <NumRotatableBonds>  (210) 
4

>  <is_N_methyl>  (210) 
False

>  <is_a_methyl>  (210) 
False

>  <is_alpha_aa>  (210) 
False

>  <is_beta_aa>  (210) 
True

>  <is_S100_aa>  (210) 
False

>  <Murcko_SMILES>  (210) 


$$$$

     RDKit          2D

 15 15  0  0  0  0  0  0  0  0999 V2000
    6.0000    0.0000    0.0000 O   0  0  0  0  0  0  0  0  0  0  0  0
    5.2500   -1.2990    0.0000 C   0  0  0  0  0  0  0  0  0  0  0  0
    3.7500   -1.2990    0.0000 C   0  0  0  0  0  0  0  0  0  0  0  0
    3.0000    0.0000    0.0000 C   0  0  0  0  0  0  0  0  0  0  0  0
    1.5000    0.0000    0.0000 C   0  0  0  0  0  0  0  0  0  0  0  0
    0.7500   -1.2990    0.0000 C   0  0  0  0  0  0  0  0  0  0  0  0
   -0.7500   -1.2990    0.0000 C   0  0  0  0  0  0  0  0  0  0  0  0
   -1.5000   -2.5981    0.0000 F   0  0  0  0  0  0  0  0  0  0  0  0
   -1.5000    0.0000    0.0000 C   0  0  0  0  0  0  0  0  0  0  0  0
   -0.7500    1.2990    0.0000 C   0  0  0  0  0  0  0  0  0  0  0  0
   -1.5000    2.5981    0.0000 F   0  0  0  0  0  0  0  0  0  0  0  0
    0.7500    1.2990    0.0000 C   0  0  0  0  0  0  0  0  0  0  0  0
    3.0000   -2.5981    0.0000 N   0  0  0  0  0  0  0  0  0  0  0  0
    3.7500   -3.8971    0.0000 R   0  0  0  0  0  1  0  0  0  1  0  0
    6.0000   -2.5981    0.0000 R   0  0  0  0  0  1  0  0  0  2  0  0
  1  2  2  0
  2  3  1  0
  3  4  1  1
  4  5  1  0
  5  6  2  0
  6  7  1  0
  7  8  1  0
  7  9  2  0
  9 10  1  0
 10 11  1  0
 10 12  2  0
  3 13  1  0
 13 14  1  0
  2 15  1  0
 12  5  1  0
M  END
>  <id>  (211) 
aeb357d1-9e88-410d-afe1-8c27771bbcc3

>  <Version>  (211) 
0

>  <Alias>  (211) 
3,5FPhe

>  <Type>  (211) 
amino_acid

>  <Smiles>  (211) 
O=C([C@H](Cc1cc(F)cc(F)c1)N[*:1])[*:2]

>  <ProtectedSmiles>  (211) 
O=C(N[C@@H](Cc1cc(F)cc(F)c1)C(=O)O)OCC1c2ccccc2-c2ccccc21

>  <CAS>  (211) 
205526-24-5

>  <User>  (211) 
sevan.h

>  <StereoComment>  (211) 
as drawn

>  <Name>  (211) 
Fmoc-L-3,5-difluorophenylalanine

>  <Code>  (211) 
3,5FPhe

>  <AliasLowerCase>  (211) 
3,5fphe

>  <LatestVersion>  (211) 
0.0

>  <createdAt>  (211) 
2026-01-14T12:16:20.912Z

>  <updatedAt>  (211) 
2026-01-14T12:16:20.912Z

>  <NumRotatableBonds>  (211) 
4

>  <is_N_methyl>  (211) 
False

>  <is_a_methyl>  (211) 
False

>  <is_alpha_aa>  (211) 
True

>  <is_beta_aa>  (211) 
False

>  <is_S100_aa>  (211) 
False

>  <Murcko_SMILES>  (211) 
c1ccccc1

$$$$

     RDKit          2D

 13 13  0  0  0  0  0  0  0  0999 V2000
    2.7760    0.0000    0.0000 C   0  0  0  0  0  0  0  0  0  0  0  0
    1.2760    0.0000    0.0000 N   0  0  0  0  0  0  0  0  0  0  0  0
    0.3943    1.2135    0.0000 C   0  0  0  0  0  0  0  0  0  0  0  0
   -1.0323    0.7500    0.0000 C   0  0  0  0  0  0  0  0  0  0  0  0
   -2.2458    1.6317    0.0000 C   0  0  0  0  0  0  0  0  0  0  0  0
   -2.0890    3.1235    0.0000 C   0  0  0  0  0  0  0  0  0  0  0  0
   -0.7187    3.7336    0.0000 N   0  0  0  0  0  0  0  0  0  0  0  0
   -0.5619    5.2253    0.0000 R   0  0  0  0  0  1  0  0  0  1  0  0
   -3.3025    4.0051    0.0000 C   0  0  0  0  0  0  0  0  0  0  0  0
   -4.6729    3.3950    0.0000 O   0  0  0  0  0  0  0  0  0  0  0  0
   -3.1458    5.4969    0.0000 R   0  0  0  0  0  1  0  0  0  2  0  0
   -1.0323   -0.7500    0.0000 C   0  0  0  0  0  0  0  0  0  0  0  0
    0.3943   -1.2135    0.0000 N   0  0  0  0  0  0  0  0  0  0  0  0
  1  2  1  0
  2  3  1  0
  3  4  2  0
  4  5  1  0
  5  6  1  0
  6  7  1  0
  7  8  1  0
  6  9  1  0
  9 10  2  0
  9 11  1  0
  4 12  1  0
 12 13  2  0
 13  2  1  0
M  END
>  <id>  (212) 
23be93db-b2b0-485a-8816-db80eb56b8c1

>  <Version>  (212) 
0

>  <Alias>  (212) 
1MePRZ

>  <Type>  (212) 
amino_acid

>  <Smiles>  (212) 
Cn1cc(CC(N[*:1])C(=O)[*:2])cn1

>  <ProtectedSmiles>  (212) 
Cn1cc(CC(NC(=O)OCC2c3ccccc3-c3ccccc32)C(=O)O)cn1

>  <CAS>  (212) 
1379871-85-8

>  <User>  (212) 
sevan.h

>  <StereoComment>  (212) 
as drawn

>  <Name>  (212) 
2-(9H-fluoren-9-ylmethoxycarbonylamino)-3-(1-methylpyrazol-4-yl)propanoic acid

>  <Code>  (212) 
1MePRZ

>  <AliasLowerCase>  (212) 
1meprz

>  <LatestVersion>  (212) 
0.0

>  <createdAt>  (212) 
2026-01-14T12:15:20.477Z

>  <updatedAt>  (212) 
2026-01-14T12:15:20.477Z

>  <NumRotatableBonds>  (212) 
4

>  <is_N_methyl>  (212) 
False

>  <is_a_methyl>  (212) 
False

>  <is_alpha_aa>  (212) 
True

>  <is_beta_aa>  (212) 
False

>  <is_S100_aa>  (212) 
False

>  <Murcko_SMILES>  (212) 
c1cn[nH]c1

$$$$

     RDKit          2D

 12 11  0  0  0  0  0  0  0  0999 V2000
    7.7942   -0.0000    0.0000 C   0  0  0  0  0  0  0  0  0  0  0  0
    6.4952    0.7500    0.0000 C   0  0  0  0  0  0  0  0  0  0  0  0
    6.4952    2.2500    0.0000 C   0  0  0  0  0  0  0  0  0  0  0  0
    5.1962   -0.0000    0.0000 C   0  0  0  0  0  0  0  0  0  0  0  0
    3.8971    0.7500    0.0000 C   0  0  0  0  0  0  0  0  0  0  0  0
    2.5981   -0.0000    0.0000 C   0  0  0  0  0  0  0  0  0  0  0  0
    1.2990    0.7500    0.0000 N   0  0  0  0  0  0  0  0  0  0  0  0
    0.0000    0.0000    0.0000 R   0  0  0  0  0  1  0  0  0  1  0  0
    3.8971    2.2500    0.0000 C   0  0  0  0  0  0  0  0  0  0  0  0
    2.5981    3.0000    0.0000 C   0  0  0  0  0  0  0  0  0  0  0  0
    1.2990    2.2500    0.0000 O   0  0  0  0  0  0  0  0  0  0  0  0
    2.5981    4.5000    0.0000 R   0  0  0  0  0  1  0  0  0  2  0  0
  1  2  1  0
  2  3  1  0
  2  4  1  0
  5  4  1  6
  5  6  1  0
  6  7  1  0
  7  8  1  0
  5  9  1  0
  9 10  1  0
 10 11  2  0
 10 12  1  0
M  END
>  <id>  (213) 
f7614956-f627-43ea-80d2-96b739622727

>  <Version>  (213) 
0

>  <Alias>  (213) 
Pregab

>  <Type>  (213) 
amino_acid

>  <Smiles>  (213) 
CC(C)C[C@H](CN[*:1])CC(=O)[*:2]

>  <ProtectedSmiles>  (213) 
CC(C)C[C@H](CNC(=O)OCC1c2ccccc2-c2ccccc21)CC(=O)O

>  <CAS>  (213) 
1308334-66-8

>  <User>  (213) 
sevan.h

>  <StereoComment>  (213) 
as drawn

>  <Name>  (213) 
(3S)-3-[({[(9H-fluoren-9-yl)methoxy]carbonyl}amino)methyl]-5-methylhexanoic acid

>  <Code>  (213) 
Pregab

>  <AliasLowerCase>  (213) 
pregab

>  <LatestVersion>  (213) 
0.0

>  <createdAt>  (213) 
2026-01-14T11:38:18.074Z

>  <updatedAt>  (213) 
2026-01-14T11:38:18.074Z

>  <NumRotatableBonds>  (213) 
6

>  <is_N_methyl>  (213) 
False

>  <is_a_methyl>  (213) 
False

>  <is_alpha_aa>  (213) 
False

>  <is_beta_aa>  (213) 
False

>  <is_S100_aa>  (213) 
False

>  <Murcko_SMILES>  (213) 


$$$$

     RDKit          2D

 16 17  0  0  0  0  0  0  0  0999 V2000
   -5.4933   -4.1162    0.0000 O   0  0  0  0  0  0  0  0  0  0  0  0
   -4.3786   -5.1199    0.0000 C   0  0  0  0  0  0  0  0  0  0  0  0
   -2.9520   -4.6564    0.0000 C   0  0  0  0  0  0  0  0  0  0  0  0
   -2.6401   -3.1891    0.0000 C   0  0  0  0  0  0  0  0  0  0  0  0
   -1.2135   -2.7256    0.0000 C   0  0  0  0  0  0  0  0  0  0  0  0
   -0.0000   -3.6073    0.0000 C   0  0  0  0  0  0  0  0  0  0  0  0
    1.2135   -2.7256    0.0000 N   0  0  0  0  0  0  0  0  0  0  0  0
    0.7500   -1.2990    0.0000 C   0  0  0  0  0  0  0  0  0  0  0  0
    1.5000    0.0000    0.0000 C   0  0  0  0  0  0  0  0  0  0  0  0
    0.7500    1.2990    0.0000 C   0  0  0  0  0  0  0  0  0  0  0  0
   -0.7500    1.2990    0.0000 C   0  0  0  0  0  0  0  0  0  0  0  0
   -1.5000    0.0000    0.0000 C   0  0  0  0  0  0  0  0  0  0  0  0
   -0.7500   -1.2990    0.0000 C   0  0  0  0  0  0  0  0  0  0  0  0
   -1.8373   -5.6601    0.0000 N   0  0  0  0  0  0  0  0  0  0  0  0
   -2.1491   -7.1273    0.0000 R   0  0  0  0  0  1  0  0  0  1  0  0
   -4.6904   -6.5871    0.0000 R   0  0  0  0  0  1  0  0  0  2  0  0
  1  2  2  0
  2  3  1  0
  3  4  1  1
  4  5  1  0
  5  6  2  0
  6  7  1  0
  7  8  1  0
  8  9  2  0
  9 10  1  0
 10 11  2  0
 11 12  1  0
 12 13  2  0
  3 14  1  0
 14 15  1  0
  2 16  1  0
 13  5  1  0
 13  8  1  0
M  END
>  <id>  (214) 
1b207cf8-ccd2-481e-9dec-6b08853c4663

>  <Version>  (214) 
0

>  <Alias>  (214) 
D-Trp

>  <Type>  (214) 
amino_acid

>  <Smiles>  (214) 
O=C([C@@H](Cc1c[nH]c2ccccc12)N[*:1])[*:2]

>  <ProtectedSmiles>  (214) 
CC(C)(C)OC(=O)n1cc(C[C@@H](NC(=O)OCC2c3ccccc3-c3ccccc32)C(=O)O)c2ccccc21

>  <CAS>  (214) 
163619-04-3

>  <User>  (214) 
sevan.h

>  <StereoComment>  (214) 
as drawn

>  <Name>  (214) 
Fmoc-D-Trp(Boc)-oh

>  <Code>  (214) 
D-Trp

>  <AliasLowerCase>  (214) 
d-trp

>  <LatestVersion>  (214) 
0.0

>  <createdAt>  (214) 
2026-01-14T12:17:14.752Z

>  <updatedAt>  (214) 
2026-01-14T12:17:14.752Z

>  <NumRotatableBonds>  (214) 
4

>  <is_N_methyl>  (214) 
False

>  <is_a_methyl>  (214) 
False

>  <is_alpha_aa>  (214) 
True

>  <is_beta_aa>  (214) 
False

>  <is_S100_aa>  (214) 
False

>  <Murcko_SMILES>  (214) 
c1ccc2[nH]ccc2c1

$$$$

     RDKit          2D

 12 12  0  0  0  0  0  0  0  0999 V2000
    3.0000   -2.5981    0.0000 O   0  0  0  0  0  0  0  0  0  0  0  0
    3.7500   -1.2990    0.0000 C   0  0  0  0  0  0  0  0  0  0  0  0
    3.0000    0.0000    0.0000 C   0  0  0  0  0  0  0  0  0  0  0  0
    1.5000    0.0000    0.0000 N   0  0  0  0  0  0  0  0  0  0  0  0
    0.7500   -1.2990    0.0000 C   0  0  0  0  0  0  0  0  0  0  0  0
   -0.7500   -1.2990    0.0000 C   0  0  0  0  0  0  0  0  0  0  0  0
   -1.5000    0.0000    0.0000 C   0  0  0  0  0  0  0  0  0  0  0  0
   -3.0000    0.0000    0.0000 N   0  0  0  0  0  0  0  0  0  0  0  0
   -3.7500    1.2990    0.0000 R   0  0  0  0  0  1  0  0  0  1  0  0
   -0.7500    1.2990    0.0000 C   0  0  0  0  0  0  0  0  0  0  0  0
    0.7500    1.2990    0.0000 C   0  0  0  0  0  0  0  0  0  0  0  0
    5.2500   -1.2990    0.0000 R   0  0  0  0  0  1  0  0  0  2  0  0
  1  2  2  0
  2  3  1  0
  3  4  1  0
  4  5  1  0
  5  6  1  0
  6  7  1  0
  7  8  1  0
  8  9  1  0
  7 10  1  0
 10 11  1  0
  2 12  1  0
 11  4  1  0
M  END
>  <id>  (215) 
1b8ed98b-43e8-4a14-9892-17efccebe241

>  <Version>  (215) 
0

>  <Alias>  (215) 
4amPip

>  <Type>  (215) 
amino_acid

>  <Smiles>  (215) 
O=C(CN1CCC(N[*:1])CC1)[*:2]

>  <ProtectedSmiles>  (215) 
O=C(O)CN1CCC(NC(=O)OCC2c3ccccc3-c3ccccc32)CC1

>  <CAS>  (215) 
221352-82-5

>  <User>  (215) 
Sevan.habeshian@orbismedicines.com

>  <StereoComment>  (215) 
as drawn

>  <Name>  (215) 
N/A

>  <Code>  (215) 
4amPip

>  <AliasLowerCase>  (215) 
4ampip

>  <LatestVersion>  (215) 
0.0

>  <createdAt>  (215) 
2026-02-13T09:56:36.279Z

>  <updatedAt>  (215) 
2026-02-13T09:56:36.279Z

>  <NumRotatableBonds>  (215) 
3

>  <is_N_methyl>  (215) 
False

>  <is_a_methyl>  (215) 
False

>  <is_alpha_aa>  (215) 
False

>  <is_beta_aa>  (215) 
False

>  <is_S100_aa>  (215) 
False

>  <Murcko_SMILES>  (215) 
C1CCNCC1

$$$$

     RDKit          2D

 11 10  0  0  0  0  0  0  0  0999 V2000
    7.7942   -0.0000    0.0000 N   0  0  0  0  0  0  0  0  0  0  0  0
    6.4952    0.7500    0.0000 C   0  0  0  0  0  0  0  0  0  0  0  0
    6.4952    2.2500    0.0000 O   0  0  0  0  0  0  0  0  0  0  0  0
    5.1962   -0.0000    0.0000 C   0  0  0  0  0  0  0  0  0  0  0  0
    3.8971    0.7500    0.0000 C   0  0  0  0  0  0  0  0  0  0  0  0
    2.5981   -0.0000    0.0000 C   0  0  0  0  0  0  0  0  0  0  0  0
    1.2990    0.7500    0.0000 C   0  0  0  0  0  0  0  0  0  0  0  0
    1.2990    2.2500    0.0000 O   0  0  0  0  0  0  0  0  0  0  0  0
    0.0000    0.0000    0.0000 R   0  0  0  0  0  1  0  0  0  2  0  0
    5.1962   -1.5000    0.0000 N   0  0  0  0  0  0  0  0  0  0  0  0
    6.4952   -2.2500    0.0000 R   0  0  0  0  0  1  0  0  0  1  0  0
  1  2  1  0
  2  3  2  0
  2  4  1  0
  4  5  1  1
  5  6  1  0
  6  7  1  0
  7  8  2  0
  7  9  1  0
  4 10  1  0
 10 11  1  0
M  END
>  <id>  (216) 
81971f3a-9ed0-4b73-928f-1d31df1811ca

>  <Version>  (216) 
0

>  <Alias>  (216) 
L-Gln-NH2

>  <Type>  (216) 
amino_acid

>  <Smiles>  (216) 
NC(=O)[C@H](CCC(=O)[*:2])N[*:1]

>  <ProtectedSmiles>  (216) 
NC(=O)[C@H](CCC(=O)O)NC(=O)OCC1c2ccccc2-c2ccccc21

>  <CAS>  (216) 
288149-55-3

>  <User>  (216) 
sevan.h

>  <StereoComment>  (216) 
as drawn

>  <Name>  (216) 
 (S)-4-((((9H-Fluoren-9-yl)methoxy)carbonyl)amino)-5-amino-5-oxopentanoic acid

>  <Code>  (216) 
L-Gln-NH2

>  <AliasLowerCase>  (216) 
l-gln-nh2

>  <LatestVersion>  (216) 
0.0

>  <createdAt>  (216) 
2026-01-14T11:38:22.199Z

>  <updatedAt>  (216) 
2026-01-14T11:38:22.199Z

>  <NumRotatableBonds>  (216) 
5

>  <is_N_methyl>  (216) 
False

>  <is_a_methyl>  (216) 
False

>  <is_alpha_aa>  (216) 
False

>  <is_beta_aa>  (216) 
False

>  <is_S100_aa>  (216) 
False

>  <Murcko_SMILES>  (216) 


$$$$

     RDKit          2D

 18 19  0  0  0  0  0  0  0  0999 V2000
   -3.1476   -2.1380    0.0000 C   0  0  0  0  0  0  0  0  0  0  0  0
   -1.6852   -2.4718    0.0000 N   0  0  0  0  0  0  0  0  0  0  0  0
   -1.3515   -3.9342    0.0000 C   0  0  0  0  0  0  0  0  0  0  0  0
   -2.5242   -4.8694    0.0000 O   0  0  0  0  0  0  0  0  0  0  0  0
   -0.0000   -4.5850    0.0000 C   0  0  0  0  0  0  0  0  0  0  0  0
   -0.0000   -6.0850    0.0000 N   0  0  0  0  0  0  0  0  0  0  0  0
   -1.2990   -6.8350    0.0000 R   0  0  0  0  0  1  0  0  0  1  0  0
    1.3515   -3.9342    0.0000 C   0  0  0  0  0  0  0  0  0  0  0  0
    1.6852   -2.4718    0.0000 O   0  0  0  0  0  0  0  0  0  0  0  0
    0.7500   -1.2990    0.0000 C   0  0  0  0  0  0  0  0  0  0  0  0
    1.5000    0.0000    0.0000 C   0  0  0  0  0  0  0  0  0  0  0  0
    0.7500    1.2990    0.0000 C   0  0  0  0  0  0  0  0  0  0  0  0
    1.5000    2.5981    0.0000 C   0  0  0  0  0  0  0  0  0  0  0  0
    0.7500    3.8971    0.0000 O   0  0  0  0  0  0  0  0  0  0  0  0
    3.0000    2.5981    0.0000 R   0  0  0  0  0  1  0  0  0  2  0  0
   -0.7500    1.2990    0.0000 C   0  0  0  0  0  0  0  0  0  0  0  0
   -1.5000    0.0000    0.0000 C   0  0  0  0  0  0  0  0  0  0  0  0
   -0.7500   -1.2990    0.0000 C   0  0  0  0  0  0  0  0  0  0  0  0
  1  2  1  0
  2  3  1  0
  3  4  2  0
  3  5  1  0
  5  6  1  6
  6  7  1  0
  5  8  1  0
  8  9  1  0
  9 10  1  0
 10 11  2  0
 11 12  1  0
 12 13  1  0
 13 14  2  0
 13 15  1  0
 12 16  2  0
 16 17  1  0
 17 18  2  0
 18  2  1  0
 18 10  1  0
M  END
>  <id>  (217) 
2688188a-0c02-4919-9d98-5e714fce3fd1

>  <Version>  (217) 
0

>  <Alias>  (217) 
Thoa

>  <Type>  (217) 
amino_acid

>  <Smiles>  (217) 
CN1C(=O)[C@@H](N[*:1])COc2cc(C(=O)[*:2])ccc21

>  <ProtectedSmiles>  (217) 
CN1C(=O)[C@@H](NC(=O)OCC2c3ccccc3-c3ccccc32)COc2cc(C(=O)O)ccc21

>  <CAS>  (217) 
not reported on label

>  <User>  (217) 
mischa.s

>  <StereoComment>  (217) 
as drawn

>  <Name>  (217) 
(S)-3-((((9H-Fluoren-9-yl)methoxy)carbonyl)amino)-5-methyl-4-oxo-2,3,4,5-tetrahydrobenzo[b][1,4]oxazepine-8-carboxylic acid

>  <Code>  (217) 
Thoa

>  <AliasLowerCase>  (217) 
thoa

>  <LatestVersion>  (217) 
0.0

>  <createdAt>  (217) 
2026-01-14T11:38:04.012Z

>  <updatedAt>  (217) 
2026-01-14T11:38:04.012Z

>  <NumRotatableBonds>  (217) 
2

>  <is_N_methyl>  (217) 
False

>  <is_a_methyl>  (217) 
False

>  <is_alpha_aa>  (217) 
False

>  <is_beta_aa>  (217) 
False

>  <is_S100_aa>  (217) 
False

>  <Murcko_SMILES>  (217) 
O=C1CCOc2ccccc2N1

$$$$

     RDKit          2D

 14 15  0  0  0  0  0  0  0  0999 V2000
    0.2341    5.5746    0.0000 O   0  0  0  0  0  0  0  0  0  0  0  0
   -0.8806    4.5709    0.0000 C   0  0  0  0  0  0  0  0  0  0  0  0
   -0.5688    3.1036    0.0000 C   0  0  0  0  0  0  0  0  0  0  0  0
    0.8578    2.6401    0.0000 C   0  0  0  0  0  0  0  0  0  0  0  0
    0.3943    1.2135    0.0000 N   0  0  0  0  0  0  0  0  0  0  0  0
    1.2760    0.0000    0.0000 C   0  0  0  0  0  0  0  0  0  0  0  0
    0.3943   -1.2135    0.0000 C   0  0  0  0  0  0  0  0  0  0  0  0
   -1.0323   -0.7500    0.0000 C   0  0  0  0  0  0  0  0  0  0  0  0
   -1.0323    0.7500    0.0000 N   0  0  0  0  0  0  0  0  0  0  0  0
    2.2844    2.1766    0.0000 C   0  0  0  0  0  0  0  0  0  0  0  0
    2.7479    3.6032    0.0000 N   0  0  0  0  0  0  0  0  0  0  0  0
    4.0844    4.2842    0.0000 R   0  0  0  0  0  1  0  0  0  1  0  0
    1.3213    4.0667    0.0000 C   0  0  0  0  0  0  0  0  0  0  0  0
   -2.3072    5.0344    0.0000 R   0  0  0  0  0  1  0  0  0  2  0  0
  1  2  2  0
  2  3  1  0
  3  4  1  0
  4  5  1  0
  5  6  1  0
  6  7  2  0
  7  8  1  0
  8  9  2  0
  4 10  1  0
 10 11  1  0
 11 12  1  0
 11 13  1  0
  2 14  1  0
 13  4  1  0
  9  5  1  0
M  END
>  <id>  (218) 
f58d43ee-d2ec-4930-8a95-eb04028c3a33

>  <Version>  (218) 
0

>  <Alias>  (218) 
1HPyra_3Azet

>  <Type>  (218) 
amino_acid

>  <Smiles>  (218) 
O=C(CC1(n2cccn2)CN([*:1])C1)[*:2]

>  <ProtectedSmiles>  (218) 
O=C(O)CC1(n2cccn2)CN(C(=O)OCC2c3ccccc3-c3ccccc32)C1

>  <CAS>  (218) 
2839138-40-6

>  <User>  (218) 
sevan.h

>  <StereoComment>  (218) 
as drawn

>  <Name>  (218) 
2-(1-{[(9H-fluoren-9-yl)methoxy]carbonyl}-3-(1H-pyrazol-1-yl)azetidin-3-yl)acetic acid

>  <Code>  (218) 
1HPyra_3Azet

>  <AliasLowerCase>  (218) 
1hpyra_3azet

>  <LatestVersion>  (218) 
0.0

>  <createdAt>  (218) 
2026-01-14T11:32:50.186Z

>  <updatedAt>  (218) 
2026-01-14T11:32:50.186Z

>  <NumRotatableBonds>  (218) 
3

>  <is_N_methyl>  (218) 
False

>  <is_a_methyl>  (218) 
False

>  <is_alpha_aa>  (218) 
False

>  <is_beta_aa>  (218) 
False

>  <is_S100_aa>  (218) 
False

>  <Murcko_SMILES>  (218) 
c1cnn(C2CNC2)c1

$$$$

     RDKit          2D

 10  9  0  0  0  0  0  0  0  0999 V2000
    5.1962    6.0000    0.0000 N   0  0  0  0  0  0  0  0  0  0  0  0
    5.1962    4.5000    0.0000 C   0  0  0  0  0  0  0  0  0  0  0  0
    5.1962    3.0000    0.0000 C   0  0  0  0  0  0  0  0  0  0  0  0
    3.8971    2.2500    0.0000 C   0  0  0  0  0  0  0  0  0  0  0  0
    3.8971    0.7500    0.0000 N   0  0  0  0  0  0  0  0  0  0  0  0
    2.5981   -0.0000    0.0000 C   0  0  0  0  0  0  0  0  0  0  0  0
    1.2990    0.7500    0.0000 C   0  0  0  0  0  0  0  0  0  0  0  0
    1.2990    2.2500    0.0000 O   0  0  0  0  0  0  0  0  0  0  0  0
    0.0000    0.0000    0.0000 R   0  0  0  0  0  1  0  0  0  2  0  0
    5.1962   -0.0000    0.0000 R   0  0  0  0  0  1  0  0  0  1  0  0
  1  2  3  0
  2  3  1  0
  3  4  1  0
  4  5  1  0
  5  6  1  0
  6  7  1  0
  7  8  2  0
  7  9  1  0
  5 10  1  0
M  END
>  <id>  (219) 
ee590f2f-dad6-4f15-98a3-cf9e347872a6

>  <Version>  (219) 
0

>  <Alias>  (219) 
N(Et2CN)AcOH

>  <Type>  (219) 
amino_acid

>  <Smiles>  (219) 
N#CCCN(CC(=O)[*:2])[*:1]

>  <ProtectedSmiles>  (219) 
N#CCCN(CC(=O)O)C(=O)OCC1c2ccccc2-c2ccccc21

>  <CAS>  (219) 
2219375-96-7

>  <User>  (219) 
angelica.l

>  <StereoComment>  (219) 
as drawn

>  <Name>  (219) 
2-[(2-cyanoethyl)({[(9H-fluoren-9-yl)methoxy]carbonyl})amino]acetic acid

>  <Code>  (219) 
N(Et2CN)AcOH

>  <AliasLowerCase>  (219) 
n(et2cn)acoh

>  <LatestVersion>  (219) 
0.0

>  <createdAt>  (219) 
2026-01-14T11:35:16.792Z

>  <updatedAt>  (219) 
2026-01-14T11:35:16.792Z

>  <NumRotatableBonds>  (219) 
4

>  <is_N_methyl>  (219) 
False

>  <is_a_methyl>  (219) 
False

>  <is_alpha_aa>  (219) 
True

>  <is_beta_aa>  (219) 
False

>  <is_S100_aa>  (219) 
False

>  <Murcko_SMILES>  (219) 


$$$$

     RDKit          2D

 11 10  0  0  0  0  0  0  0  0999 V2000
    7.7942   -0.0000    0.0000 N   0  0  0  0  0  0  0  0  0  0  0  0
    6.4952    0.7500    0.0000 C   0  0  0  0  0  0  0  0  0  0  0  0
    6.4952    2.2500    0.0000 O   0  0  0  0  0  0  0  0  0  0  0  0
    5.1962   -0.0000    0.0000 C   0  0  0  0  0  0  0  0  0  0  0  0
    3.8971    0.7500    0.0000 C   0  0  0  0  0  0  0  0  0  0  0  0
    2.5981   -0.0000    0.0000 C   0  0  0  0  0  0  0  0  0  0  0  0
    1.2990    0.7500    0.0000 N   0  0  0  0  0  0  0  0  0  0  0  0
    0.0000    0.0000    0.0000 R   0  0  0  0  0  1  0  0  0  1  0  0
    2.5981   -1.5000    0.0000 C   0  0  0  0  0  0  0  0  0  0  0  0
    1.2990   -2.2500    0.0000 O   0  0  0  0  0  0  0  0  0  0  0  0
    3.8971   -2.2500    0.0000 R   0  0  0  0  0  1  0  0  0  2  0  0
  1  2  1  0
  2  3  2  0
  2  4  1  0
  4  5  1  0
  6  5  1  6
  6  7  1  0
  7  8  1  0
  6  9  1  0
  9 10  2  0
  9 11  1  0
M  END
>  <id>  (220) 
f909caa1-3d77-4650-b9de-f82473918a2f

>  <Version>  (220) 
0

>  <Alias>  (220) 
D-Gln

>  <Type>  (220) 
amino_acid

>  <Smiles>  (220) 
NC(=O)CC[C@@H](N[*:1])C(=O)[*:2]

>  <ProtectedSmiles>  (220) 
O=C(CC[C@@H](NC(=O)OCC1c2ccccc2-c2ccccc21)C(=O)O)NC(c1ccccc1)(c1ccccc1)c1ccccc1

>  <CAS>  (220) 
200623-62-7

>  <User>  (220) 
sevan.h

>  <StereoComment>  (220) 
as drawn

>  <Name>  (220) 
Fmoc-D-Gln(Trt)-OH

>  <Code>  (220) 
D-Gln

>  <AliasLowerCase>  (220) 
d-gln

>  <LatestVersion>  (220) 
0.0

>  <createdAt>  (220) 
2026-01-14T12:17:29.200Z

>  <updatedAt>  (220) 
2026-01-14T12:17:29.200Z

>  <NumRotatableBonds>  (220) 
5

>  <is_N_methyl>  (220) 
False

>  <is_a_methyl>  (220) 
False

>  <is_alpha_aa>  (220) 
True

>  <is_beta_aa>  (220) 
False

>  <is_S100_aa>  (220) 
False

>  <Murcko_SMILES>  (220) 


$$$$

     RDKit          2D

 11 11  0  0  0  0  0  0  0  0999 V2000
    3.7500    1.2990    0.0000 O   0  0  0  0  0  0  0  0  0  0  0  0
    3.0000    0.0000    0.0000 C   0  0  0  0  0  0  0  0  0  0  0  0
    1.5000    0.0000    0.0000 C   0  0  0  0  0  0  0  0  0  0  0  0
    0.7500   -1.2990    0.0000 C   0  0  0  0  0  0  0  0  0  0  0  0
   -0.7500   -1.2990    0.0000 C   0  0  0  0  0  0  0  0  0  0  0  0
   -1.5000    0.0000    0.0000 C   0  0  0  0  0  0  0  0  0  0  0  0
   -3.0000    0.0000    0.0000 N   0  0  0  0  0  0  0  0  0  0  0  0
   -3.7500    1.2990    0.0000 R   0  0  0  0  0  1  0  0  0  1  0  0
   -0.7500    1.2990    0.0000 C   0  0  0  0  0  0  0  0  0  0  0  0
    0.7500    1.2990    0.0000 C   0  0  0  0  0  0  0  0  0  0  0  0
    3.7500   -1.2990    0.0000 R   0  0  0  0  0  1  0  0  0  2  0  0
  1  2  2  0
  2  3  1  0
  3  4  2  0
  4  5  1  0
  5  6  2  0
  6  7  1  0
  7  8  1  0
  6  9  1  0
  9 10  2  0
  2 11  1  0
 10  3  1  0
M  END
>  <id>  (221) 
689749a3-a314-46a2-a85b-594da944b8c1

>  <Version>  (221) 
0

>  <Alias>  (221) 
4Abz

>  <Type>  (221) 
amino_acid

>  <Smiles>  (221) 
O=C(c1ccc(N[*:1])cc1)[*:2]

>  <ProtectedSmiles>  (221) 
O=C(Nc1ccc(C(=O)O)cc1)OCC1c2ccccc2-c2ccccc21

>  <CAS>  (221) 
185116-43-2

>  <User>  (221) 
sevan.h

>  <StereoComment>  (221) 
as drawn

>  <Name>  (221) 
Fmoc-4-aminobenzoic acid

>  <Code>  (221) 
4Abz

>  <AliasLowerCase>  (221) 
4abz

>  <LatestVersion>  (221) 
0.0

>  <createdAt>  (221) 
2026-01-14T12:15:53.708Z

>  <updatedAt>  (221) 
2026-01-14T12:15:53.708Z

>  <NumRotatableBonds>  (221) 
2

>  <is_N_methyl>  (221) 
False

>  <is_a_methyl>  (221) 
False

>  <is_alpha_aa>  (221) 
False

>  <is_beta_aa>  (221) 
False

>  <is_S100_aa>  (221) 
False

>  <Murcko_SMILES>  (221) 
c1ccccc1

$$$$

     RDKit          2D

 13 13  0  0  0  0  0  0  0  0999 V2000
    6.0000    0.0000    0.0000 O   0  0  0  0  0  0  0  0  0  0  0  0
    5.2500   -1.2990    0.0000 C   0  0  0  0  0  0  0  0  0  0  0  0
    3.7500   -1.2990    0.0000 C   0  0  0  0  0  0  0  0  0  0  0  0
    3.0000    0.0000    0.0000 C   0  0  0  0  0  0  0  0  0  0  0  0
    1.5000    0.0000    0.0000 C   0  0  0  0  0  0  0  0  0  0  0  0
    0.7500   -1.2990    0.0000 C   0  0  0  0  0  0  0  0  0  0  0  0
   -0.7500   -1.2990    0.0000 C   0  0  0  0  0  0  0  0  0  0  0  0
   -1.5000    0.0000    0.0000 C   0  0  0  0  0  0  0  0  0  0  0  0
   -0.7500    1.2990    0.0000 C   0  0  0  0  0  0  0  0  0  0  0  0
    0.7500    1.2990    0.0000 C   0  0  0  0  0  0  0  0  0  0  0  0
    3.0000   -2.5981    0.0000 N   0  0  0  0  0  0  0  0  0  0  0  0
    3.7500   -3.8971    0.0000 R   0  0  0  0  0  1  0  0  0  1  0  0
    6.0000   -2.5981    0.0000 R   0  0  0  0  0  1  0  0  0  2  0  0
  1  2  2  0
  2  3  1  0
  3  4  1  6
  4  5  1  0
  5  6  2  0
  6  7  1  0
  7  8  2  0
  8  9  1  0
  9 10  2  0
  3 11  1  0
 11 12  1  0
  2 13  1  0
 10  5  1  0
M  END
>  <id>  (222) 
8d35ed0a-e3c4-4e5d-89d1-9e7f54299ab9

>  <Version>  (222) 
0

>  <Alias>  (222) 
D-Phe

>  <Type>  (222) 
amino_acid

>  <Smiles>  (222) 
O=C([C@@H](Cc1ccccc1)N[*:1])[*:2]

>  <ProtectedSmiles>  (222) 
O=C(N[C@H](Cc1ccccc1)C(=O)O)OCC1c2ccccc2-c2ccccc21

>  <CAS>  (222) 
86123-10-6

>  <User>  (222) 
sevan.h

>  <StereoComment>  (222) 
as drawn

>  <Name>  (222) 
Fmoc-D-phenylalanine

>  <Code>  (222) 
D-Phe

>  <AliasLowerCase>  (222) 
d-phe

>  <LatestVersion>  (222) 
0.0

>  <createdAt>  (222) 
2026-01-14T12:17:13.830Z

>  <updatedAt>  (222) 
2026-01-14T12:17:13.830Z

>  <NumRotatableBonds>  (222) 
4

>  <is_N_methyl>  (222) 
False

>  <is_a_methyl>  (222) 
False

>  <is_alpha_aa>  (222) 
True

>  <is_beta_aa>  (222) 
False

>  <is_S100_aa>  (222) 
False

>  <Murcko_SMILES>  (222) 
c1ccccc1

$$$$

     RDKit          2D

 12 13  0  0  0  0  0  0  0  0999 V2000
   -4.6729    1.8950    0.0000 O   0  0  0  0  0  0  0  0  0  0  0  0
   -3.3025    2.5051    0.0000 C   0  0  0  0  0  0  0  0  0  0  0  0
   -2.0890    1.6235    0.0000 C   0  0  0  0  0  0  0  0  0  0  0  0
   -0.7187    2.2336    0.0000 C   0  0  0  0  0  0  0  0  0  0  0  0
    0.3943    1.2135    0.0000 C   0  0  0  0  0  0  0  0  0  0  0  0
    1.2760    0.0000    0.0000 C   0  0  0  0  0  0  0  0  0  0  0  0
    0.3943   -1.2135    0.0000 C   0  0  0  0  0  0  0  0  0  0  0  0
   -1.0323   -0.7500    0.0000 C   0  0  0  0  0  0  0  0  0  0  0  0
   -2.2458    0.1317    0.0000 C   0  0  0  0  0  0  0  0  0  0  0  0
   -1.0323    0.7500    0.0000 N   0  0  0  0  0  0  0  0  0  0  0  0
   -1.7714    1.0486    0.0000 R   0  0  0  0  0  1  0  0  0  1  0  0
   -3.1458    3.9969    0.0000 R   0  0  0  0  0  1  0  0  0  2  0  0
  1  2  2  0
  2  3  1  0
  3  4  1  0
  4  5  1  0
  5  6  1  0
  6  7  1  0
  7  8  1  0
  8  9  1  0
  8 10  1  0
 10 11  1  0
  2 12  1  0
  9  3  1  0
 10  5  1  0
M  END
>  <id>  (223) 
6577a832-4fb5-46bf-8243-94205f481d51

>  <Version>  (223) 
0

>  <Alias>  (223) 
racAzabicyOctCA

>  <Type>  (223) 
amino_acid

>  <Smiles>  (223) 
O=C(C1CC2CCC(C1)N2[*:1])[*:2]

>  <ProtectedSmiles>  (223) 
O=C(O)C1CC2CCC(C1)N2C(=O)OCC1c2ccccc2-c2ccccc21

>  <CAS>  (223) 
2138169-16-9

>  <User>  (223) 
Sevan.habeshian@orbismedicines.com

>  <StereoComment>  (223) 
as drawn

>  <Name>  (223) 
N/A

>  <Code>  (223) 
racAzabicyOctCA

>  <AliasLowerCase>  (223) 
racazabicyoctca

>  <LatestVersion>  (223) 
0.0

>  <createdAt>  (223) 
2026-02-13T09:56:35.515Z

>  <updatedAt>  (223) 
2026-02-13T09:56:35.515Z

>  <NumRotatableBonds>  (223) 
1

>  <is_N_methyl>  (223) 
False

>  <is_a_methyl>  (223) 
False

>  <is_alpha_aa>  (223) 
False

>  <is_beta_aa>  (223) 
False

>  <is_S100_aa>  (223) 
False

>  <Murcko_SMILES>  (223) 
C1CC2CCC(C1)N2

$$$$

     RDKit          2D

 11 10  0  0  0  0  0  0  0  0999 V2000
    7.7942   -0.0000    0.0000 C   0  0  0  0  0  0  0  0  0  0  0  0
    6.4952    0.7500    0.0000 C   0  0  0  0  0  0  0  0  0  0  0  0
    6.4952    2.2500    0.0000 C   0  0  0  0  0  0  0  0  0  0  0  0
    5.1962   -0.0000    0.0000 C   0  0  0  0  0  0  0  0  0  0  0  0
    3.8971    0.7500    0.0000 C   0  0  0  0  0  0  0  0  0  0  0  0
    2.5981   -0.0000    0.0000 C   0  0  0  0  0  0  0  0  0  0  0  0
    1.2990    0.7500    0.0000 N   0  0  0  0  0  0  0  0  0  0  0  0
    0.0000    0.0000    0.0000 R   0  0  0  0  0  1  0  0  0  1  0  0
    2.5981   -1.5000    0.0000 C   0  0  0  0  0  0  0  0  0  0  0  0
    1.2990   -2.2500    0.0000 O   0  0  0  0  0  0  0  0  0  0  0  0
    3.8971   -2.2500    0.0000 R   0  0  0  0  0  1  0  0  0  2  0  0
  1  2  1  0
  2  3  1  0
  2  4  1  0
  4  5  1  0
  6  5  1  1
  6  7  1  0
  7  8  1  0
  6  9  1  0
  9 10  2  0
  9 11  1  0
M  END
>  <id>  (224) 
b5bb369a-da8f-4b1d-91a4-929b5e92b794

>  <Version>  (224) 
0

>  <Alias>  (224) 
hLeu

>  <Type>  (224) 
amino_acid

>  <Smiles>  (224) 
CC(C)CC[C@H](N[*:1])C(=O)[*:2]

>  <ProtectedSmiles>  (224) 
CC(C)CC[C@H](NC(=O)OCC1c2ccccc2-c2ccccc21)C(=O)O

>  <CAS>  (224) 
180414-94-2

>  <User>  (224) 
sevan.h

>  <StereoComment>  (224) 
as drawn

>  <Name>  (224) 
Fmoc-L-homoleucine

>  <Code>  (224) 
hLeu

>  <AliasLowerCase>  (224) 
hleu

>  <LatestVersion>  (224) 
0.0

>  <createdAt>  (224) 
2026-01-14T12:16:02.447Z

>  <updatedAt>  (224) 
2026-01-14T12:16:02.447Z

>  <NumRotatableBonds>  (224) 
5

>  <is_N_methyl>  (224) 
False

>  <is_a_methyl>  (224) 
False

>  <is_alpha_aa>  (224) 
True

>  <is_beta_aa>  (224) 
False

>  <is_S100_aa>  (224) 
False

>  <Murcko_SMILES>  (224) 


$$$$

     RDKit          2D

 14 14  0  0  0  0  0  0  0  0999 V2000
    6.0000    0.0000    0.0000 O   0  0  0  0  0  0  0  0  0  0  0  0
    5.2500   -1.2990    0.0000 C   0  0  0  0  0  0  0  0  0  0  0  0
    3.7500   -1.2990    0.0000 C   0  0  0  0  0  0  0  0  0  0  0  0
    3.0000    0.0000    0.0000 C   0  0  0  0  0  0  0  0  0  0  0  0
    1.5000    0.0000    0.0000 C   0  0  0  0  0  0  0  0  0  0  0  0
    0.7500   -1.2990    0.0000 C   0  0  0  0  0  0  0  0  0  0  0  0
   -0.7500   -1.2990    0.0000 C   0  0  0  0  0  0  0  0  0  0  0  0
   -1.5000    0.0000    0.0000 C   0  0  0  0  0  0  0  0  0  0  0  0
   -0.7500    1.2990    0.0000 C   0  0  0  0  0  0  0  0  0  0  0  0
    0.7500    1.2990    0.0000 C   0  0  0  0  0  0  0  0  0  0  0  0
    1.5000    2.5981    0.0000 O   0  0  0  0  0  0  0  0  0  0  0  0
    3.0000   -2.5981    0.0000 N   0  0  0  0  0  0  0  0  0  0  0  0
    3.7500   -3.8971    0.0000 R   0  0  0  0  0  1  0  0  0  1  0  0
    6.0000   -2.5981    0.0000 R   0  0  0  0  0  1  0  0  0  2  0  0
  1  2  2  0
  2  3  1  0
  3  4  1  1
  4  5  1  0
  5  6  2  0
  6  7  1  0
  7  8  2  0
  8  9  1  0
  9 10  2  0
 10 11  1  0
  3 12  1  0
 12 13  1  0
  2 14  1  0
 10  5  1  0
M  END
>  <id>  (225) 
ddba362a-a88b-48da-a053-bf2e7d0d06d3

>  <Version>  (225) 
0

>  <Alias>  (225) 
2HOPhe

>  <Type>  (225) 
amino_acid

>  <Smiles>  (225) 
O=C([C@H](Cc1ccccc1O)N[*:1])[*:2]

>  <ProtectedSmiles>  (225) 
O=C(N[C@@H](Cc1ccccc1O)C(=O)O)OCC1c2ccccc2-c2ccccc21

>  <CAS>  (225) 
1217697-92-1

>  <User>  (225) 
angelica.l

>  <StereoComment>  (225) 
as drawn

>  <Name>  (225) 
Fmoc-2-hydroxy-l-phenylalanine

>  <Code>  (225) 
2HOPhe

>  <AliasLowerCase>  (225) 
2hophe

>  <LatestVersion>  (225) 
0.0

>  <createdAt>  (225) 
2026-01-14T11:36:06.002Z

>  <updatedAt>  (225) 
2026-01-14T11:36:06.002Z

>  <NumRotatableBonds>  (225) 
4

>  <is_N_methyl>  (225) 
False

>  <is_a_methyl>  (225) 
False

>  <is_alpha_aa>  (225) 
True

>  <is_beta_aa>  (225) 
False

>  <is_S100_aa>  (225) 
False

>  <Murcko_SMILES>  (225) 
c1ccccc1

$$$$

     RDKit          2D

 12 11  0  0  0  0  0  0  0  0999 V2000
    6.4952   -2.2500    0.0000 C   0  0  0  0  0  0  0  0  0  0  0  0
    6.4952   -0.7500    0.0000 C   0  0  0  0  0  0  0  0  0  0  0  0
    5.1962   -0.0000    0.0000 C   0  0  0  0  0  0  0  0  0  0  0  0
    5.9462    1.2990    0.0000 C   0  0  0  0  0  0  0  0  0  0  0  0
    4.4462   -1.2990    0.0000 C   0  0  0  0  0  0  0  0  0  0  0  0
    3.8971    0.7500    0.0000 C   0  0  0  0  0  0  0  0  0  0  0  0
    2.5981   -0.0000    0.0000 C   0  0  0  0  0  0  0  0  0  0  0  0
    1.2990    0.7500    0.0000 N   0  0  0  0  0  0  0  0  0  0  0  0
    0.0000    0.0000    0.0000 R   0  0  0  0  0  1  0  0  0  1  0  0
    2.5981   -1.5000    0.0000 C   0  0  0  0  0  0  0  0  0  0  0  0
    1.2990   -2.2500    0.0000 O   0  0  0  0  0  0  0  0  0  0  0  0
    3.8971   -2.2500    0.0000 R   0  0  0  0  0  1  0  0  0  2  0  0
  1  2  1  0
  2  3  1  0
  3  4  1  0
  3  5  1  0
  3  6  1  0
  7  6  1  1
  7  8  1  0
  8  9  1  0
  7 10  1  0
 10 11  2  0
 10 12  1  0
M  END
>  <id>  (226) 
b7f5a1ed-52fd-44b3-a9d5-800d5e36b0f5

>  <Version>  (226) 
0

>  <Alias>  (226) 
L-NeI(4-4-2Me)

>  <Type>  (226) 
amino_acid

>  <Smiles>  (226) 
CCC(C)(C)C[C@H](N[*:1])C(=O)[*:2]

>  <ProtectedSmiles>  (226) 
CCC(C)(C)C[C@H](NC(=O)OCC1c2ccccc2-c2ccccc21)C(=O)O

>  <CAS>  (226) 
308807-06-9

>  <User>  (226) 
mischa.s

>  <StereoComment>  (226) 
as drawn

>  <Name>  (226) 
Fmoc-L-NeI(4-4-2Me)-OH

>  <Code>  (226) 
L-NeI(4-4-2Me)

>  <AliasLowerCase>  (226) 
l-nei(4-4-2me)

>  <LatestVersion>  (226) 
0.0

>  <createdAt>  (226) 
2026-01-14T11:33:15.000Z

>  <updatedAt>  (226) 
2026-01-14T11:33:15.000Z

>  <NumRotatableBonds>  (226) 
5

>  <is_N_methyl>  (226) 
False

>  <is_a_methyl>  (226) 
False

>  <is_alpha_aa>  (226) 
True

>  <is_beta_aa>  (226) 
False

>  <is_S100_aa>  (226) 
False

>  <Murcko_SMILES>  (226) 


$$$$

     RDKit          2D

 14 14  0  0  0  0  0  0  0  0999 V2000
    3.7500   -1.2990    0.0000 C   0  0  0  0  0  0  0  0  0  0  0  0
    3.0000    0.0000    0.0000 C   0  0  0  0  0  0  0  0  0  0  0  0
    3.7500    1.2990    0.0000 C   0  0  0  0  0  0  0  0  0  0  0  0
    5.2500    1.2990    0.0000 C   0  0  0  0  0  0  0  0  0  0  0  0
    6.0000   -0.0000    0.0000 O   0  0  0  0  0  0  0  0  0  0  0  0
    6.0000    2.5981    0.0000 R   0  0  0  0  0  1  0  0  0  2  0  0
    1.5000    0.0000    0.0000 C   0  0  0  0  0  0  0  0  0  0  0  0
    0.7500   -1.2990    0.0000 C   0  0  0  0  0  0  0  0  0  0  0  0
   -0.7500   -1.2990    0.0000 C   0  0  0  0  0  0  0  0  0  0  0  0
   -1.5000    0.0000    0.0000 C   0  0  0  0  0  0  0  0  0  0  0  0
   -3.0000    0.0000    0.0000 N   0  0  0  0  0  0  0  0  0  0  0  0
   -3.7500    1.2990    0.0000 R   0  0  0  0  0  1  0  0  0  1  0  0
   -0.7500    1.2990    0.0000 C   0  0  0  0  0  0  0  0  0  0  0  0
    0.7500    1.2990    0.0000 C   0  0  0  0  0  0  0  0  0  0  0  0
  1  2  1  0
  2  3  1  0
  3  4  1  0
  4  5  2  0
  4  6  1  0
  2  7  1  0
  7  8  2  0
  8  9  1  0
  9 10  2  0
 10 11  1  0
 11 12  1  0
 10 13  1  0
 13 14  2  0
 14  7  1  0
M  END
>  <id>  (227) 
cd8c6e28-2ae1-40ba-a996-e0038a23fe14

>  <Version>  (227) 
0

>  <Alias>  (227) 
3Bu4AMBA

>  <Type>  (227) 
amino_acid

>  <Smiles>  (227) 
CC(CC(=O)[*:2])c1ccc(N[*:1])cc1

>  <ProtectedSmiles>  (227) 
CC(CC(=O)O)c1ccc(NC(=O)OCC2c3ccccc3-c3ccccc32)cc1

>  <CAS>  (227) 
1566943-70-1

>  <User>  (227) 
Sevan.habeshian@orbismedicines.com

>  <StereoComment>  (227) 
as drawn

>  <Name>  (227) 
N/A

>  <Code>  (227) 
3Bu4AMBA

>  <AliasLowerCase>  (227) 
3bu4amba

>  <LatestVersion>  (227) 
0.0

>  <createdAt>  (227) 
2026-02-13T09:56:35.393Z

>  <updatedAt>  (227) 
2026-02-13T09:56:35.393Z

>  <NumRotatableBonds>  (227) 
4

>  <is_N_methyl>  (227) 
False

>  <is_a_methyl>  (227) 
False

>  <is_alpha_aa>  (227) 
False

>  <is_beta_aa>  (227) 
False

>  <is_S100_aa>  (227) 
False

>  <Murcko_SMILES>  (227) 
c1ccccc1

$$$$

     RDKit          2D

 14 15  0  0  0  0  0  0  0  0999 V2000
    3.7500    1.2990    0.0000 O   0  0  0  0  0  0  0  0  0  0  0  0
    3.0000    0.0000    0.0000 C   0  0  0  0  0  0  0  0  0  0  0  0
    1.5000    0.0000    0.0000 C   0  0  0  0  0  0  0  0  0  0  0  0
    0.7500   -1.2990    0.0000 C   0  0  0  0  0  0  0  0  0  0  0  0
   -0.7500   -1.2990    0.0000 C   0  0  0  0  0  0  0  0  0  0  0  0
   -1.5000    0.0000    0.0000 C   0  0  0  0  0  0  0  0  0  0  0  0
   -3.0000    0.0000    0.0000 C   0  0  0  0  0  0  0  0  0  0  0  0
   -3.2605   -1.4772    0.0000 N   0  0  0  0  0  0  0  0  0  0  0  0
   -4.6700   -1.9902    0.0000 R   0  0  0  0  0  1  0  0  0  1  0  0
   -4.4095    0.5130    0.0000 C   0  0  0  0  0  0  0  0  0  0  0  0
   -3.2605    1.4772    0.0000 C   0  0  0  0  0  0  0  0  0  0  0  0
   -0.7500    1.2990    0.0000 C   0  0  0  0  0  0  0  0  0  0  0  0
    0.7500    1.2990    0.0000 C   0  0  0  0  0  0  0  0  0  0  0  0
    3.7500   -1.2990    0.0000 R   0  0  0  0  0  1  0  0  0  2  0  0
  1  2  2  0
  2  3  1  0
  3  4  2  0
  4  5  1  0
  5  6  2  0
  6  7  1  0
  7  8  1  0
  8  9  1  0
  7 10  1  0
 10 11  1  0
  6 12  1  0
 12 13  2  0
  2 14  1  0
 13  3  1  0
 11  7  1  0
M  END
>  <id>  (228) 
7579816a-2e00-41b2-9547-17e52b88be99

>  <Version>  (228) 
0

>  <Alias>  (228) 
CPBzOH

>  <Type>  (228) 
amino_acid

>  <Smiles>  (228) 
O=C(c1ccc(C2(N[*:1])CC2)cc1)[*:2]

>  <ProtectedSmiles>  (228) 
O=C(NC1(c2ccc(C(=O)O)cc2)CC1)OCC1c2ccccc2-c2ccccc21

>  <CAS>  (228) 
2137629-53-7

>  <User>  (228) 
gontran.s

>  <StereoComment>  (228) 
as drawn

>  <Name>  (228) 
4-[1-[[(9H-fluoren-9-ylmethoxy)carbonyl]amino]cyclopropyl]benzoic acid

>  <Code>  (228) 
CPBzOH

>  <AliasLowerCase>  (228) 
cpbzoh

>  <LatestVersion>  (228) 
0.0

>  <createdAt>  (228) 
2026-01-14T11:38:38.522Z

>  <updatedAt>  (228) 
2026-01-14T11:38:38.522Z

>  <NumRotatableBonds>  (228) 
3

>  <is_N_methyl>  (228) 
False

>  <is_a_methyl>  (228) 
False

>  <is_alpha_aa>  (228) 
False

>  <is_beta_aa>  (228) 
False

>  <is_S100_aa>  (228) 
False

>  <Murcko_SMILES>  (228) 
c1ccc(C2CC2)cc1

$$$$

     RDKit          2D

 14 15  0  0  0  0  0  0  0  0999 V2000
    2.7990   -0.3481    0.0000 O   0  0  0  0  0  0  0  0  0  0  0  0
    2.7990   -1.8481    0.0000 C   0  0  0  0  0  0  0  0  0  0  0  0
    1.5000   -2.5981    0.0000 C   0  0  0  0  0  0  0  0  0  0  0  0
    0.7500   -1.2990    0.0000 C   0  0  0  0  0  0  0  0  0  0  0  0
    1.5000    0.0000    0.0000 C   0  0  0  0  0  0  0  0  0  0  0  0
    0.7500    1.2990    0.0000 C   0  0  0  0  0  0  0  0  0  0  0  0
   -0.7500    1.2990    0.0000 N   0  0  0  0  0  0  0  0  0  0  0  0
   -1.5000    2.5981    0.0000 R   0  0  0  0  0  1  0  0  0  1  0  0
   -1.5000    0.0000    0.0000 C   0  0  0  0  0  0  0  0  0  0  0  0
   -0.7500   -1.2990    0.0000 C   0  0  0  0  0  0  0  0  0  0  0  0
    0.2010   -3.3481    0.0000 C   0  0  0  0  0  0  0  0  0  0  0  0
    0.9510   -4.6471    0.0000 C   0  0  0  0  0  0  0  0  0  0  0  0
    2.2500   -3.8971    0.0000 C   0  0  0  0  0  0  0  0  0  0  0  0
    4.0981   -2.5981    0.0000 R   0  0  0  0  0  1  0  0  0  2  0  0
  1  2  2  0
  2  3  1  0
  3  4  1  0
  4  5  1  0
  5  6  1  0
  6  7  1  0
  7  8  1  0
  7  9  1  0
  9 10  1  0
  3 11  1  0
 11 12  1  0
 12 13  1  0
  2 14  1  0
 13  3  1  0
 10  4  1  0
M  END
>  <id>  (229) 
a769e246-5690-4f56-ab6e-e1b88ce0ebab

>  <Version>  (229) 
0

>  <Alias>  (229) 
Pip4CBCA

>  <Type>  (229) 
amino_acid

>  <Smiles>  (229) 
O=C(C1(C2CCN([*:1])CC2)CCC1)[*:2]

>  <ProtectedSmiles>  (229) 
O=C(OCC1c2ccccc2-c2ccccc21)N1CCC(C2(C(=O)O)CCC2)CC1

>  <CAS>  (229) 
2241140-02-1

>  <User>  (229) 
Sevan.habeshian@orbismedicines.com

>  <StereoComment>  (229) 
as drawn

>  <Name>  (229) 
N/A

>  <Code>  (229) 
Pip4CBCA

>  <AliasLowerCase>  (229) 
pip4cbca

>  <LatestVersion>  (229) 
0.0

>  <createdAt>  (229) 
2026-02-13T09:56:35.516Z

>  <updatedAt>  (229) 
2026-02-13T09:56:35.516Z

>  <NumRotatableBonds>  (229) 
2

>  <is_N_methyl>  (229) 
False

>  <is_a_methyl>  (229) 
False

>  <is_alpha_aa>  (229) 
False

>  <is_beta_aa>  (229) 
False

>  <is_S100_aa>  (229) 
False

>  <Murcko_SMILES>  (229) 
C1CC(C2CCNCC2)C1

$$$$

     RDKit          2D

 13 13  0  0  0  0  0  0  0  0999 V2000
    3.0000   -2.5981    0.0000 O   0  0  0  0  0  0  0  0  0  0  0  0
    3.7500   -1.2990    0.0000 C   0  0  0  0  0  0  0  0  0  0  0  0
    3.0000    0.0000    0.0000 C   0  0  0  0  0  0  0  0  0  0  0  0
    1.5000    0.0000    0.0000 C   0  0  0  0  0  0  0  0  0  0  0  0
    0.7500   -1.2990    0.0000 C   0  0  0  0  0  0  0  0  0  0  0  0
   -0.7500   -1.2990    0.0000 N   0  0  0  0  0  0  0  0  0  0  0  0
   -1.5000   -2.5981    0.0000 R   0  0  0  0  0  1  0  0  0  1  0  0
   -1.5000    0.0000    0.0000 C   0  0  0  0  0  0  0  0  0  0  0  0
   -0.7500    1.2990    0.0000 C   0  0  0  0  0  0  0  0  0  0  0  0
    0.7500    1.2990    0.0000 S   0  0  0  0  0  0  0  0  0  0  0  0
    0.4895    2.7762    0.0000 O   0  0  0  0  0  0  0  0  0  0  0  0
    2.1595    1.8121    0.0000 O   0  0  0  0  0  0  0  0  0  0  0  0
    5.2500   -1.2990    0.0000 R   0  0  0  0  0  1  0  0  0  2  0  0
  1  2  2  0
  2  3  1  0
  3  4  1  0
  4  5  1  0
  5  6  1  0
  6  7  1  0
  6  8  1  0
  8  9  1  0
  9 10  1  0
 10 11  2  0
 10 12  2  0
  2 13  1  0
 10  4  1  0
M  END
>  <id>  (230) 
9a44c77e-f85b-4351-a35e-68c184938a03

>  <Version>  (230) 
0

>  <Alias>  (230) 
rac6-SO2Morp2Ac

>  <Type>  (230) 
amino_acid

>  <Smiles>  (230) 
O=C(CC1CN([*:1])CCS1(=O)=O)[*:2]

>  <ProtectedSmiles>  (230) 
O=C(O)CC1CN(C(=O)OCC2c3ccccc3-c3ccccc32)CCS1(=O)=O

>  <CAS>  (230) 
2137761-07-8

>  <User>  (230) 
angelica.l

>  <StereoComment>  (230) 
as drawn

>  <Name>  (230) 
2-(4-{[(9H-fluoren-9-yl)methoxy]carbonyl}-1,1-dioxo-1lambda6-thiomorpholin-2-yl)acetic acid

>  <Code>  (230) 
rac6-SO2Morp2Ac

>  <AliasLowerCase>  (230) 
rac6-so2morp2ac

>  <LatestVersion>  (230) 
0.0

>  <createdAt>  (230) 
2026-01-14T11:35:17.458Z

>  <updatedAt>  (230) 
2026-01-14T11:35:17.458Z

>  <NumRotatableBonds>  (230) 
2

>  <is_N_methyl>  (230) 
False

>  <is_a_methyl>  (230) 
False

>  <is_alpha_aa>  (230) 
False

>  <is_beta_aa>  (230) 
False

>  <is_S100_aa>  (230) 
False

>  <Murcko_SMILES>  (230) 
O=S1(=O)CCNCC1

$$$$

     RDKit          2D

 13 13  0  0  0  0  0  0  0  0999 V2000
    6.0000    0.0000    0.0000 O   0  0  0  0  0  0  0  0  0  0  0  0
    5.2500   -1.2990    0.0000 C   0  0  0  0  0  0  0  0  0  0  0  0
    3.7500   -1.2990    0.0000 C   0  0  0  0  0  0  0  0  0  0  0  0
    3.0000    0.0000    0.0000 C   0  0  0  0  0  0  0  0  0  0  0  0
    1.5000    0.0000    0.0000 C   0  0  0  0  0  0  0  0  0  0  0  0
    0.7500   -1.2990    0.0000 C   0  0  0  0  0  0  0  0  0  0  0  0
   -0.7500   -1.2990    0.0000 C   0  0  0  0  0  0  0  0  0  0  0  0
   -1.5000    0.0000    0.0000 C   0  0  0  0  0  0  0  0  0  0  0  0
   -0.7500    1.2990    0.0000 C   0  0  0  0  0  0  0  0  0  0  0  0
    0.7500    1.2990    0.0000 N   0  0  0  0  0  0  0  0  0  0  0  0
    3.0000   -2.5981    0.0000 N   0  0  0  0  0  0  0  0  0  0  0  0
    3.7500   -3.8971    0.0000 R   0  0  0  0  0  1  0  0  0  1  0  0
    6.0000   -2.5981    0.0000 R   0  0  0  0  0  1  0  0  0  2  0  0
  1  2  2  0
  2  3  1  0
  3  4  1  1
  4  5  1  0
  5  6  2  0
  6  7  1  0
  7  8  2  0
  8  9  1  0
  9 10  2  0
  3 11  1  0
 11 12  1  0
  2 13  1  0
 10  5  1  0
M  END
>  <id>  (231) 
c41788d8-da55-4825-a52c-f93fdd283e23

>  <Version>  (231) 
0

>  <Alias>  (231) 
2Pyr

>  <Type>  (231) 
amino_acid

>  <Smiles>  (231) 
O=C([C@H](Cc1ccccn1)N[*:1])[*:2]

>  <ProtectedSmiles>  (231) 
O=C(N[C@@H](Cc1ccccn1)C(=O)O)OCC1c2ccccc2-c2ccccc21

>  <CAS>  (231) 
185379-40-2

>  <User>  (231) 
sevan.h

>  <StereoComment>  (231) 
as drawn

>  <Name>  (231) 
Fmoc-2-pyridylalanine

>  <Code>  (231) 
2Pyr

>  <AliasLowerCase>  (231) 
2pyr

>  <LatestVersion>  (231) 
0.0

>  <createdAt>  (231) 
2026-01-14T12:17:04.105Z

>  <updatedAt>  (231) 
2026-01-14T12:17:04.105Z

>  <NumRotatableBonds>  (231) 
4

>  <is_N_methyl>  (231) 
False

>  <is_a_methyl>  (231) 
False

>  <is_alpha_aa>  (231) 
True

>  <is_beta_aa>  (231) 
False

>  <is_S100_aa>  (231) 
False

>  <Murcko_SMILES>  (231) 
c1ccncc1

$$$$

     RDKit          2D

  8  7  0  0  0  0  0  0  0  0999 V2000
    5.1962   -0.0000    0.0000 C   0  0  0  0  0  0  0  0  0  0  0  0
    3.8971    0.7500    0.0000 C   0  0  0  0  0  0  0  0  0  0  0  0
    2.5981   -0.0000    0.0000 C   0  0  0  0  0  0  0  0  0  0  0  0
    1.2990    0.7500    0.0000 C   0  0  0  0  0  0  0  0  0  0  0  0
    1.2990    2.2500    0.0000 O   0  0  0  0  0  0  0  0  0  0  0  0
    0.0000    0.0000    0.0000 R   0  0  0  0  0  1  0  0  0  2  0  0
    3.8971    2.2500    0.0000 N   0  0  0  0  0  0  0  0  0  0  0  0
    5.1962    3.0000    0.0000 R   0  0  0  0  0  1  0  0  0  1  0  0
  2  1  1  6
  2  3  1  0
  3  4  1  0
  4  5  2  0
  4  6  1  0
  2  7  1  0
  7  8  1  0
M  END
>  <id>  (232) 
aeb11f93-f84e-4969-8782-e977ba5533cc

>  <Version>  (232) 
0

>  <Alias>  (232) 
B-D-hAla

>  <Type>  (232) 
amino_acid

>  <Smiles>  (232) 
C[C@H](CC(=O)[*:2])N[*:1]

>  <ProtectedSmiles>  (232) 
C[C@H](CC(=O)O)NC(=O)OCC1c2ccccc2-c2ccccc21

>  <CAS>  (232) 
201864-71-3

>  <User>  (232) 
mischa.s

>  <StereoComment>  (232) 
as drawn

>  <Name>  (232) 
Fmoc-D-beta-homoalanine

>  <Code>  (232) 
B-D-hAla

>  <AliasLowerCase>  (232) 
b-d-hala

>  <LatestVersion>  (232) 
0.0

>  <createdAt>  (232) 
2026-01-14T11:36:30.173Z

>  <updatedAt>  (232) 
2026-01-14T11:36:30.173Z

>  <NumRotatableBonds>  (232) 
3

>  <is_N_methyl>  (232) 
False

>  <is_a_methyl>  (232) 
False

>  <is_alpha_aa>  (232) 
False

>  <is_beta_aa>  (232) 
True

>  <is_S100_aa>  (232) 
False

>  <Murcko_SMILES>  (232) 


$$$$

     RDKit          2D

 14 15  0  0  0  0  0  0  0  0999 V2000
   -2.3310   -1.8665    0.0000 O   0  0  0  0  0  0  0  0  0  0  0  0
   -1.3273   -2.9812    0.0000 C   0  0  0  0  0  0  0  0  0  0  0  0
    0.1399   -2.6694    0.0000 C   0  0  0  0  0  0  0  0  0  0  0  0
    1.2546   -3.6731    0.0000 C   0  0  0  0  0  0  0  0  0  0  0  0
    2.5537   -2.9231    0.0000 N   0  0  0  0  0  0  0  0  0  0  0  0
    3.9240   -3.5332    0.0000 R   0  0  0  0  0  1  0  0  0  1  0  0
    2.2418   -1.4558    0.0000 C   0  0  0  0  0  0  0  0  0  0  0  0
    0.7500   -1.2990    0.0000 C   0  0  0  0  0  0  0  0  0  0  0  0
    1.5000    0.0000    0.0000 C   0  0  0  0  0  0  0  0  0  0  0  0
    0.7500    1.2990    0.0000 C   0  0  0  0  0  0  0  0  0  0  0  0
   -0.7500    1.2990    0.0000 O   0  0  0  0  0  0  0  0  0  0  0  0
   -1.5000    0.0000    0.0000 C   0  0  0  0  0  0  0  0  0  0  0  0
   -0.7500   -1.2990    0.0000 C   0  0  0  0  0  0  0  0  0  0  0  0
   -1.7909   -4.4078    0.0000 R   0  0  0  0  0  1  0  0  0  2  0  0
  1  2  2  0
  2  3  1  0
  3  4  1  0
  4  5  1  0
  5  6  1  0
  5  7  1  0
  7  8  1  0
  8  9  1  0
  9 10  1  0
 10 11  1  0
 11 12  1  0
 12 13  1  0
  2 14  1  0
  8  3  1  0
 13  8  1  0
M  END
>  <id>  (233) 
213f7c84-3aa3-4008-baaf-2e877068c298

>  <Version>  (233) 
0

>  <Alias>  (233) 
OxaSpiroDec3CA

>  <Type>  (233) 
amino_acid

>  <Smiles>  (233) 
O=C(C1CN([*:1])CC12CCOCC2)[*:2]

>  <ProtectedSmiles>  (233) 
O=C(O)C1CN(C(=O)OCC2c3ccccc3-c3ccccc32)CC12CCOCC2

>  <CAS>  (233) 
2155855-03-9

>  <User>  (233) 
Sevan.habeshian@orbismedicines.com

>  <StereoComment>  (233) 
as drawn

>  <Name>  (233) 
N/A

>  <Code>  (233) 
OxaSpiroDec3CA

>  <AliasLowerCase>  (233) 
oxaspirodec3ca

>  <LatestVersion>  (233) 
0.0

>  <createdAt>  (233) 
2026-02-13T09:56:35.527Z

>  <updatedAt>  (233) 
2026-02-13T09:56:35.527Z

>  <NumRotatableBonds>  (233) 
1

>  <is_N_methyl>  (233) 
False

>  <is_a_methyl>  (233) 
False

>  <is_alpha_aa>  (233) 
False

>  <is_beta_aa>  (233) 
True

>  <is_S100_aa>  (233) 
False

>  <Murcko_SMILES>  (233) 
C1CC2(CCOCC2)CN1

$$$$

     RDKit          2D

 13 13  0  0  0  0  0  0  0  0999 V2000
    2.7760    0.0000    0.0000 C   0  0  0  0  0  0  0  0  0  0  0  0
    1.2760    0.0000    0.0000 C   0  0  0  0  0  0  0  0  0  0  0  0
    0.3943    1.2135    0.0000 N   0  0  0  0  0  0  0  0  0  0  0  0
   -1.0323    0.7500    0.0000 C   0  0  0  0  0  0  0  0  0  0  0  0
   -2.2458    1.6317    0.0000 C   0  0  0  0  0  0  0  0  0  0  0  0
   -2.0890    3.1235    0.0000 C   0  0  0  0  0  0  0  0  0  0  0  0
   -3.6161    1.0216    0.0000 N   0  0  0  0  0  0  0  0  0  0  0  0
   -4.8297    1.9033    0.0000 R   0  0  0  0  0  1  0  0  0  1  0  0
   -1.0323   -0.7500    0.0000 S   0  0  0  0  0  0  0  0  0  0  0  0
    0.3943   -1.2135    0.0000 C   0  0  0  0  0  0  0  0  0  0  0  0
    0.8578   -2.6401    0.0000 C   0  0  0  0  0  0  0  0  0  0  0  0
    2.3250   -2.9520    0.0000 O   0  0  0  0  0  0  0  0  0  0  0  0
   -0.1459   -3.7548    0.0000 R   0  0  0  0  0  1  0  0  0  2  0  0
  1  2  1  0
  2  3  1  0
  3  4  2  0
  4  5  1  0
  5  6  1  0
  5  7  1  0
  7  8  1  0
  4  9  1  0
  9 10  1  0
 10 11  1  0
 11 12  2  0
 11 13  1  0
 10  2  2  0
M  END
>  <id>  (234) 
301502d4-0d21-4b34-99af-fda2ed38b432

>  <Version>  (234) 
0

>  <Alias>  (234) 
4Me1,3Thz5CA

>  <Type>  (234) 
amino_acid

>  <Smiles>  (234) 
Cc1nc(C(C)N[*:1])sc1C(=O)[*:2]

>  <ProtectedSmiles>  (234) 
Cc1nc(C(C)NC(=O)OCC2c3ccccc3-c3ccccc32)sc1C(=O)O

>  <CAS>  (234) 
2137787-63-2

>  <User>  (234) 
angelica.l

>  <StereoComment>  (234) 
as drawn

>  <Name>  (234) 
2-[1-({[(9H-fluoren-9-yl)methoxy]carbonyl}amino)ethyl]-4-methyl-1,3-thiazole-5-carboxylic acid

>  <Code>  (234) 
4Me1,3Thz5CA

>  <AliasLowerCase>  (234) 
4me1,3thz5ca

>  <LatestVersion>  (234) 
0.0

>  <createdAt>  (234) 
2026-01-14T11:35:24.037Z

>  <updatedAt>  (234) 
2026-01-14T11:35:24.037Z

>  <NumRotatableBonds>  (234) 
3

>  <is_N_methyl>  (234) 
False

>  <is_a_methyl>  (234) 
False

>  <is_alpha_aa>  (234) 
False

>  <is_beta_aa>  (234) 
False

>  <is_S100_aa>  (234) 
False

>  <Murcko_SMILES>  (234) 
c1cscn1

$$$$

     RDKit          2D

 14 15  0  0  0  0  0  0  0  0999 V2000
   -3.7500   -1.2990    0.0000 O   0  0  0  0  0  0  0  0  0  0  0  0
   -3.0000   -2.5981    0.0000 C   0  0  0  0  0  0  0  0  0  0  0  0
   -1.5000   -2.5981    0.0000 C   0  0  0  0  0  0  0  0  0  0  0  0
   -0.7500   -3.8971    0.0000 C   0  0  0  0  0  0  0  0  0  0  0  0
    0.7500   -3.8971    0.0000 N   0  0  0  0  0  0  0  0  0  0  0  0
    1.5000   -5.1962    0.0000 R   0  0  0  0  0  1  0  0  0  1  0  0
    1.5000   -2.5981    0.0000 C   0  0  0  0  0  0  0  0  0  0  0  0
    0.7500   -1.2990    0.0000 C   0  0  0  0  0  0  0  0  0  0  0  0
    1.5000    0.0000    0.0000 C   0  0  0  0  0  0  0  0  0  0  0  0
    0.7500    1.2990    0.0000 C   0  0  0  0  0  0  0  0  0  0  0  0
   -0.7500    1.2990    0.0000 C   0  0  0  0  0  0  0  0  0  0  0  0
   -1.5000    0.0000    0.0000 C   0  0  0  0  0  0  0  0  0  0  0  0
   -0.7500   -1.2990    0.0000 C   0  0  0  0  0  0  0  0  0  0  0  0
   -3.7500   -3.8971    0.0000 R   0  0  0  0  0  1  0  0  0  2  0  0
  1  2  2  0
  2  3  1  0
  3  4  1  0
  4  5  1  0
  5  6  1  0
  5  7  1  0
  7  8  1  0
  8  9  2  0
  9 10  1  0
 10 11  2  0
 11 12  1  0
 12 13  2  0
  2 14  1  0
 13  3  1  0
 13  8  1  0
M  END
>  <id>  (235) 
5ebf7079-b086-464e-afbe-35672b960edf

>  <Version>  (235) 
0

>  <Alias>  (235) 
4-CA-THIQ

>  <Type>  (235) 
amino_acid

>  <Smiles>  (235) 
O=C(C1CN([*:1])Cc2ccccc21)[*:2]

>  <ProtectedSmiles>  (235) 
O=C(O)C1CN(C(=O)OCC2c3ccccc3-c3ccccc32)Cc2ccccc21

>  <CAS>  (235) 
1199776-90-3

>  <User>  (235) 
emile.b

>  <StereoComment>  (235) 
as drawn

>  <Name>  (235) 
2-(((9H-fluoren-9-yl)methoxy)carbonyl)-1,2,3,4-tetrahydroisoquinoline-4-carboxylic acid

>  <Code>  (235) 
4-CA-THIQ

>  <AliasLowerCase>  (235) 
4-ca-thiq

>  <LatestVersion>  (235) 
0.0

>  <createdAt>  (235) 
2026-01-14T11:32:26.500Z

>  <updatedAt>  (235) 
2026-01-14T11:32:26.500Z

>  <NumRotatableBonds>  (235) 
1

>  <is_N_methyl>  (235) 
False

>  <is_a_methyl>  (235) 
False

>  <is_alpha_aa>  (235) 
False

>  <is_beta_aa>  (235) 
True

>  <is_S100_aa>  (235) 
False

>  <Murcko_SMILES>  (235) 
c1ccc2c(c1)CCNC2

$$$$

     RDKit          2D

 10  9  0  0  0  0  0  0  0  0999 V2000
    6.4952    0.7500    0.0000 C   0  0  0  0  0  0  0  0  0  0  0  0
    5.1962   -0.0000    0.0000 C   0  0  0  0  0  0  0  0  0  0  0  0
    5.1962   -1.5000    0.0000 C   0  0  0  0  0  0  0  0  0  0  0  0
    3.8971    0.7500    0.0000 C   0  0  0  0  0  0  0  0  0  0  0  0
    2.5981   -0.0000    0.0000 C   0  0  0  0  0  0  0  0  0  0  0  0
    1.2990    0.7500    0.0000 N   0  0  0  0  0  0  0  0  0  0  0  0
    0.0000    0.0000    0.0000 R   0  0  0  0  0  1  0  0  0  1  0  0
    3.8971    2.2500    0.0000 C   0  0  0  0  0  0  0  0  0  0  0  0
    2.5981    3.0000    0.0000 O   0  0  0  0  0  0  0  0  0  0  0  0
    5.1962    3.0000    0.0000 R   0  0  0  0  0  1  0  0  0  2  0  0
  1  2  1  0
  2  3  1  0
  2  4  1  0
  4  5  1  1
  5  6  1  0
  6  7  1  0
  4  8  1  0
  8  9  2  0
  8 10  1  0
M  END
>  <id>  (236) 
6bc8e866-215c-4a3a-af83-d159f1075ff9

>  <Version>  (236) 
0

>  <Alias>  (236) 
S-B2-hVal

>  <Type>  (236) 
amino_acid

>  <Smiles>  (236) 
CC(C)[C@@H](CN[*:1])C(=O)[*:2]

>  <ProtectedSmiles>  (236) 
CC(C)[C@@H](CNC(=O)OCC1c2ccccc2-c2ccccc21)C(=O)O

>  <CAS>  (236) 
203854-59-5

>  <User>  (236) 
emile.b

>  <StereoComment>  (236) 
as drawn

>  <Name>  (236) 
Fmoc-R-beta2-homoValine-OH

>  <Code>  (236) 
S-B2-hVal

>  <AliasLowerCase>  (236) 
s-b2-hval

>  <LatestVersion>  (236) 
0.0

>  <createdAt>  (236) 
2026-01-14T11:34:36.765Z

>  <updatedAt>  (236) 
2026-01-14T11:34:36.765Z

>  <NumRotatableBonds>  (236) 
4

>  <is_N_methyl>  (236) 
False

>  <is_a_methyl>  (236) 
False

>  <is_alpha_aa>  (236) 
False

>  <is_beta_aa>  (236) 
True

>  <is_S100_aa>  (236) 
False

>  <Murcko_SMILES>  (236) 


$$$$

     RDKit          2D

 14 14  0  0  0  0  0  0  0  0999 V2000
    5.2500   -3.8971    0.0000 O   0  0  0  0  0  0  0  0  0  0  0  0
    3.7500   -3.8971    0.0000 C   0  0  0  0  0  0  0  0  0  0  0  0
    3.0000   -2.5981    0.0000 C   0  0  0  0  0  0  0  0  0  0  0  0
    3.7500   -1.2990    0.0000 N   0  0  0  0  0  0  0  0  0  0  0  0
    3.0000    0.0000    0.0000 C   0  0  0  0  0  0  0  0  0  0  0  0
    1.5000    0.0000    0.0000 C   0  0  0  0  0  0  0  0  0  0  0  0
    0.7500   -1.2990    0.0000 C   0  0  0  0  0  0  0  0  0  0  0  0
   -0.7500   -1.2990    0.0000 C   0  0  0  0  0  0  0  0  0  0  0  0
   -1.5000    0.0000    0.0000 C   0  0  0  0  0  0  0  0  0  0  0  0
   -3.0000    0.0000    0.0000 O   0  0  0  0  0  0  0  0  0  0  0  0
   -0.7500    1.2990    0.0000 C   0  0  0  0  0  0  0  0  0  0  0  0
    0.7500    1.2990    0.0000 C   0  0  0  0  0  0  0  0  0  0  0  0
    5.2500   -1.2990    0.0000 R   0  0  0  0  0  1  0  0  0  1  0  0
    3.0000   -5.1962    0.0000 R   0  0  0  0  0  1  0  0  0  2  0  0
  1  2  2  0
  2  3  1  0
  3  4  1  0
  4  5  1  0
  5  6  1  0
  6  7  2  0
  7  8  1  0
  8  9  2  0
  9 10  1  0
  9 11  1  0
 11 12  2  0
  4 13  1  0
  2 14  1  0
 12  6  1  0
M  END
>  <id>  (237) 
c3ee0195-0ea1-4bed-9f3e-648165f5e49d

>  <Version>  (237) 
0

>  <Alias>  (237) 
4OtBu-PheEtGly

>  <Type>  (237) 
amino_acid

>  <Smiles>  (237) 
O=C(CN(Cc1ccc(O)cc1)[*:1])[*:2]

>  <ProtectedSmiles>  (237) 
CC(C)(C)Oc1ccc(CN(CC(=O)O)C(=O)OCC2c3ccccc3-c3ccccc32)cc1

>  <CAS>  (237) 
258332-56-8

>  <User>  (237) 
alice.granger@orbismedicines.com

>  <StereoComment>  (237) 
as drawn

>  <Name>  (237) 
2-({2-[4-(tert-butoxy)phenyl]ethyl}({[(9H-fluoren-9-yl)methoxy]carbonyl})amino)acetic acid

>  <Code>  (237) 
4OtBu-PheEtGly

>  <AliasLowerCase>  (237) 
4otbu-pheetgly

>  <LatestVersion>  (237) 
0.0

>  <createdAt>  (237) 
2026-03-11T10:37:04.553Z

>  <updatedAt>  (237) 
2026-03-11T10:37:04.553Z

>  <NumRotatableBonds>  (237) 
4

>  <is_N_methyl>  (237) 
False

>  <is_a_methyl>  (237) 
False

>  <is_alpha_aa>  (237) 
True

>  <is_beta_aa>  (237) 
False

>  <is_S100_aa>  (237) 
False

>  <Murcko_SMILES>  (237) 
c1ccccc1

$$$$

     RDKit          2D

  0  0  0  0  0  0  0  0  0  0999 V3000
M  V30 BEGIN CTAB
M  V30 COUNTS 15 16 0 0 0
M  V30 BEGIN ATOM
M  V30 1 O -1.581022 -3.165545 0.000000 0
M  V30 2 C -0.577326 -4.280262 0.000000 0
M  V30 3 C 0.889895 -3.968394 0.000000 0
M  V30 4 C 2.004612 -4.972090 0.000000 0
M  V30 5 N 3.303650 -4.222090 0.000000 0
M  V30 6 "NOT [H]" 4.673969 -4.832195 0.000000 1
M  V30 7 C 2.991783 -2.754869 0.000000 0
M  V30 8 C 1.500000 -2.598076 0.000000 0
M  V30 9 C 0.750000 -1.299038 0.000000 0
M  V30 10 C 1.500000 0.000000 0.000000 0
M  V30 11 C 0.750000 1.299038 0.000000 0
M  V30 12 C -0.750000 1.299038 0.000000 0
M  V30 13 C -1.500000 0.000000 0.000000 0
M  V30 14 C -0.750000 -1.299038 0.000000 0
M  V30 15 "NOT [H]" -1.040852 -5.706847 0.000000 2
M  V30 END ATOM
M  V30 BEGIN BOND
M  V30 1 2 1 2
M  V30 2 1 3 2 CFG=3
M  V30 3 1 3 4
M  V30 4 1 4 5
M  V30 5 1 5 6
M  V30 6 1 5 7
M  V30 7 1 7 8
M  V30 8 1 8 9 CFG=1
M  V30 9 2 9 10
M  V30 10 1 10 11
M  V30 11 2 11 12
M  V30 12 1 12 13
M  V30 13 2 13 14
M  V30 14 1 2 15
M  V30 15 1 8 3
M  V30 16 1 14 9
M  V30 END BOND
M  V30 BEGIN COLLECTION
M  V30 MDLV30/STERAC1 ATOMS=(2 3 8)
M  V30 END COLLECTION
M  V30 END CTAB
M  END
>  <id>  (238) 
329cecb9-fd4e-4dfb-b355-1d1d2004b94f

>  <Version>  (238) 
0

>  <Alias>  (238) 
rac(4Ph)-3PyrrCA

>  <Type>  (238) 
amino_acid

>  <Smiles>  (238) 
O=C([C@H]1CN([*:1])C[C@@H]1c1ccccc1)[*:2] |&1:2,7|

>  <ProtectedSmiles>  (238) 
O=C(O)[C@H]1CN(C(=O)OCC2c3ccccc3-c3ccccc32)C[C@@H]1c1ccccc1 |&1:3,24|

>  <CAS>  (238) 
1361197-86-5

>  <User>  (238) 
cs@orbismedicines.com

>  <StereoComment>  (238) 
rac-trans

>  <Name>  (238) 
rac-(3S,4R)-1-(9H-fluoren-9-ylmethoxycarbonyl)-4-phenyl-pyrrolidine-3-carboxylic acid

>  <Code>  (238) 
rac(4Ph)-3PyrrCA

>  <AliasLowerCase>  (238) 
rac(4ph)-3pyrrca

>  <LatestVersion>  (238) 
0.0

>  <createdAt>  (238) 
2026-02-04T08:48:26.683Z

>  <updatedAt>  (238) 
2026-02-04T08:48:26.683Z

>  <NumRotatableBonds>  (238) 
2

>  <is_N_methyl>  (238) 
False

>  <is_a_methyl>  (238) 
False

>  <is_alpha_aa>  (238) 
False

>  <is_beta_aa>  (238) 
True

>  <is_S100_aa>  (238) 
False

>  <Murcko_SMILES>  (238) 
c1ccc([C@@H]2CCNC2)cc1 |&1:4|

$$$$

     RDKit          2D

 10 10  0  0  0  0  0  0  0  0999 V2000
    3.7500    1.2990    0.0000 O   0  0  0  0  0  0  0  0  0  0  0  0
    3.0000    0.0000    0.0000 C   0  0  0  0  0  0  0  0  0  0  0  0
    1.5000    0.0000    0.0000 C   0  0  0  0  0  0  0  0  0  0  0  0
    0.7500   -1.2990    0.0000 C   0  0  0  0  0  0  0  0  0  0  0  0
   -0.7500   -1.2990    0.0000 O   0  0  0  0  0  0  0  0  0  0  0  0
   -1.5000    0.0000    0.0000 C   0  0  0  0  0  0  0  0  0  0  0  0
   -0.7500    1.2990    0.0000 C   0  0  0  0  0  0  0  0  0  0  0  0
    0.7500    1.2990    0.0000 N   0  0  0  0  0  0  0  0  0  0  0  0
    1.5000    2.5981    0.0000 R   0  0  0  0  0  1  0  0  0  1  0  0
    3.7500   -1.2990    0.0000 R   0  0  0  0  0  1  0  0  0  2  0  0
  1  2  2  0
  3  2  1  1
  3  4  1  0
  4  5  1  0
  5  6  1  0
  6  7  1  0
  7  8  1  0
  8  9  1  0
  2 10  1  0
  8  3  1  0
M  END
>  <id>  (239) 
ad1cc869-b671-4bb6-857e-f07fa7c7f2c2

>  <Version>  (239) 
0

>  <Alias>  (239) 
R-3Morph

>  <Type>  (239) 
amino_acid

>  <Smiles>  (239) 
O=C([C@H]1COCCN1[*:1])[*:2]

>  <ProtectedSmiles>  (239) 
O=C(O)[C@H]1COCCN1C(=O)OCC1c2ccccc2-c2ccccc21

>  <CAS>  (239) 
942153-03-9

>  <User>  (239) 
Sevan.habeshian@orbismedicines.com

>  <StereoComment>  (239) 
as drawn

>  <Name>  (239) 
N/A

>  <Code>  (239) 
R-3Morph

>  <AliasLowerCase>  (239) 
r-3morph

>  <LatestVersion>  (239) 
0.0

>  <createdAt>  (239) 
2026-02-13T09:56:35.503Z

>  <updatedAt>  (239) 
2026-02-13T09:56:35.503Z

>  <NumRotatableBonds>  (239) 
1

>  <is_N_methyl>  (239) 
False

>  <is_a_methyl>  (239) 
False

>  <is_alpha_aa>  (239) 
True

>  <is_beta_aa>  (239) 
False

>  <is_S100_aa>  (239) 
False

>  <Murcko_SMILES>  (239) 
C1COCCN1

$$$$

     RDKit          2D

 13 13  0  0  0  0  0  0  0  0999 V2000
    3.0000   -2.5981    0.0000 O   0  0  0  0  0  0  0  0  0  0  0  0
    3.7500   -1.2990    0.0000 C   0  0  0  0  0  0  0  0  0  0  0  0
    3.0000    0.0000    0.0000 C   0  0  0  0  0  0  0  0  0  0  0  0
    3.7500    1.2990    0.0000 N   0  0  0  0  0  0  0  0  0  0  0  0
    5.2500    1.2990    0.0000 R   0  0  0  0  0  1  0  0  0  1  0  0
    1.5000    0.0000    0.0000 C   0  0  0  0  0  0  0  0  0  0  0  0
    0.7500   -1.2990    0.0000 C   0  0  0  0  0  0  0  0  0  0  0  0
   -0.7500   -1.2990    0.0000 C   0  0  0  0  0  0  0  0  0  0  0  0
   -1.5000    0.0000    0.0000 C   0  0  0  0  0  0  0  0  0  0  0  0
   -3.0000    0.0000    0.0000 Cl  0  0  0  0  0  0  0  0  0  0  0  0
   -0.7500    1.2990    0.0000 C   0  0  0  0  0  0  0  0  0  0  0  0
    0.7500    1.2990    0.0000 C   0  0  0  0  0  0  0  0  0  0  0  0
    5.2500   -1.2990    0.0000 R   0  0  0  0  0  1  0  0  0  2  0  0
  1  2  2  0
  2  3  1  0
  3  4  1  1
  4  5  1  0
  3  6  1  0
  6  7  2  0
  7  8  1  0
  8  9  2  0
  9 10  1  0
  9 11  1  0
 11 12  2  0
  2 13  1  0
 12  6  1  0
M  END
>  <id>  (240) 
3cc5dce6-f11f-40e9-ad4a-506d36b9726c

>  <Version>  (240) 
0

>  <Alias>  (240) 
(R)-Phg(4Cl)

>  <Type>  (240) 
amino_acid

>  <Smiles>  (240) 
O=C([C@H](N[*:1])c1ccc(Cl)cc1)[*:2]

>  <ProtectedSmiles>  (240) 
O=C(N[C@@H](C(=O)O)c1ccc(Cl)cc1)OCC1c2ccccc2-c2ccccc21

>  <CAS>  (240) 
1260603-56-2

>  <User>  (240) 
mischa.s

>  <StereoComment>  (240) 
as drawn

>  <Name>  (240) 
(R)-2-((((9H-fluoren-9-yl)methoxy)carbonyl)amino)-2-(4-chlorophenyl)acetic acid

>  <Code>  (240) 
(R)-Phg(4Cl)

>  <AliasLowerCase>  (240) 
(r)-phg(4cl)

>  <LatestVersion>  (240) 
0.0

>  <createdAt>  (240) 
2026-01-14T11:34:55.585Z

>  <updatedAt>  (240) 
2026-01-14T11:34:55.585Z

>  <NumRotatableBonds>  (240) 
3

>  <is_N_methyl>  (240) 
False

>  <is_a_methyl>  (240) 
False

>  <is_alpha_aa>  (240) 
True

>  <is_beta_aa>  (240) 
False

>  <is_S100_aa>  (240) 
False

>  <Murcko_SMILES>  (240) 
c1ccccc1

$$$$

     RDKit          2D

 13 13  0  0  0  0  0  0  0  0999 V2000
    3.7500    1.2990    0.0000 O   0  0  0  0  0  0  0  0  0  0  0  0
    3.0000    0.0000    0.0000 C   0  0  0  0  0  0  0  0  0  0  0  0
    1.5000    0.0000    0.0000 C   0  0  0  0  0  0  0  0  0  0  0  0
    0.7500   -1.2990    0.0000 C   0  0  0  0  0  0  0  0  0  0  0  0
   -0.7500   -1.2990    0.0000 C   0  0  0  0  0  0  0  0  0  0  0  0
   -1.5000   -2.5981    0.0000 C   0  0  0  0  0  0  0  0  0  0  0  0
   -3.0000   -2.5981    0.0000 N   0  0  0  0  0  0  0  0  0  0  0  0
   -3.7500   -3.8971    0.0000 R   0  0  0  0  0  1  0  0  0  1  0  0
   -1.5000    0.0000    0.0000 C   0  0  0  0  0  0  0  0  0  0  0  0
   -0.7500    1.2990    0.0000 C   0  0  0  0  0  0  0  0  0  0  0  0
    0.7500    1.2990    0.0000 C   0  0  0  0  0  0  0  0  0  0  0  0
    1.5000    2.5981    0.0000 F   0  0  0  0  0  0  0  0  0  0  0  0
    3.7500   -1.2990    0.0000 R   0  0  0  0  0  1  0  0  0  2  0  0
  1  2  2  0
  2  3  1  0
  3  4  2  0
  4  5  1  0
  5  6  1  0
  6  7  1  0
  7  8  1  0
  5  9  2  0
  9 10  1  0
 10 11  2  0
 11 12  1  0
  2 13  1  0
 11  3  1  0
M  END
>  <id>  (241) 
efdeabb0-2d54-44ab-a58e-195cf2af9c97

>  <Version>  (241) 
0

>  <Alias>  (241) 
6F-3AMBA

>  <Type>  (241) 
amino_acid

>  <Smiles>  (241) 
O=C(c1cc(CN[*:1])ccc1F)[*:2]

>  <ProtectedSmiles>  (241) 
O=C(NCc1ccc(F)c(C(=O)O)c1)OCC1c2ccccc2-c2ccccc21

>  <CAS>  (241) 
2385535-62-4

>  <User>  (241) 
angelica.l

>  <StereoComment>  (241) 
as drawn

>  <Name>  (241) 
5-[({[(9H-fluoren-9-yl)methoxy]carbonyl}amino)methyl]-2-fluorobenzoic

>  <Code>  (241) 
6F-3AMBA

>  <AliasLowerCase>  (241) 
6f-3amba

>  <LatestVersion>  (241) 
0.0

>  <createdAt>  (241) 
2026-01-14T11:34:23.633Z

>  <updatedAt>  (241) 
2026-01-14T11:34:23.633Z

>  <NumRotatableBonds>  (241) 
3

>  <is_N_methyl>  (241) 
False

>  <is_a_methyl>  (241) 
False

>  <is_alpha_aa>  (241) 
False

>  <is_beta_aa>  (241) 
False

>  <is_S100_aa>  (241) 
False

>  <Murcko_SMILES>  (241) 
c1ccccc1

$$$$

     RDKit          2D

 14 14  0  0  0  0  0  0  0  0999 V2000
    3.0000    0.0000    0.0000 C   0  0  0  0  0  0  0  0  0  0  0  0
    1.5000    0.0000    0.0000 C   0  0  0  0  0  0  0  0  0  0  0  0
    0.7500   -1.2990    0.0000 C   0  0  0  0  0  0  0  0  0  0  0  0
   -0.7500   -1.2990    0.0000 C   0  0  0  0  0  0  0  0  0  0  0  0
   -1.5000    0.0000    0.0000 C   0  0  0  0  0  0  0  0  0  0  0  0
   -0.7500    1.2990    0.0000 C   0  0  0  0  0  0  0  0  0  0  0  0
   -1.5000    2.5981    0.0000 C   0  0  0  0  0  0  0  0  0  0  0  0
   -0.7500    3.8971    0.0000 C   0  0  0  0  0  0  0  0  0  0  0  0
    0.7500    3.8971    0.0000 N   0  0  0  0  0  0  0  0  0  0  0  0
    1.5000    5.1962    0.0000 R   0  0  0  0  0  1  0  0  0  1  0  0
   -1.5000    5.1962    0.0000 C   0  0  0  0  0  0  0  0  0  0  0  0
   -3.0000    5.1962    0.0000 O   0  0  0  0  0  0  0  0  0  0  0  0
   -0.7500    6.4952    0.0000 R   0  0  0  0  0  1  0  0  0  2  0  0
    0.7500    1.2990    0.0000 C   0  0  0  0  0  0  0  0  0  0  0  0
  1  2  1  0
  2  3  2  0
  3  4  1  0
  4  5  2  0
  5  6  1  0
  6  7  1  0
  8  7  1  1
  8  9  1  0
  9 10  1  0
  8 11  1  0
 11 12  2  0
 11 13  1  0
  6 14  2  0
 14  2  1  0
M  END
>  <id>  (242) 
66b05625-da1b-40d0-a41e-0b1a7519417c

>  <Version>  (242) 
0

>  <Alias>  (242) 
3MePhe

>  <Type>  (242) 
amino_acid

>  <Smiles>  (242) 
Cc1cccc(C[C@H](N[*:1])C(=O)[*:2])c1

>  <ProtectedSmiles>  (242) 
Cc1cccc(C[C@H](NC(=O)OCC2c3ccccc3-c3ccccc32)C(=O)O)c1

>  <CAS>  (242) 
211637-74-0

>  <User>  (242) 
mischa.s

>  <StereoComment>  (242) 
as drawn

>  <Name>  (242) 
Fmoc-3-methyl-L-phenylalanine

>  <Code>  (242) 
3MePhe

>  <AliasLowerCase>  (242) 
3mephe

>  <LatestVersion>  (242) 
0.0

>  <createdAt>  (242) 
2026-01-14T11:37:32.681Z

>  <updatedAt>  (242) 
2026-01-14T11:37:32.681Z

>  <NumRotatableBonds>  (242) 
4

>  <is_N_methyl>  (242) 
False

>  <is_a_methyl>  (242) 
False

>  <is_alpha_aa>  (242) 
True

>  <is_beta_aa>  (242) 
False

>  <is_S100_aa>  (242) 
False

>  <Murcko_SMILES>  (242) 
c1ccccc1

$$$$

     RDKit          2D

 14 14  0  0  0  0  0  0  0  0999 V2000
    6.0000    0.0000    0.0000 O   0  0  0  0  0  0  0  0  0  0  0  0
    5.2500   -1.2990    0.0000 C   0  0  0  0  0  0  0  0  0  0  0  0
    3.7500   -1.2990    0.0000 C   0  0  0  0  0  0  0  0  0  0  0  0
    3.0000    0.0000    0.0000 C   0  0  0  0  0  0  0  0  0  0  0  0
    1.5000    0.0000    0.0000 C   0  0  0  0  0  0  0  0  0  0  0  0
    0.7500   -1.2990    0.0000 C   0  0  0  0  0  0  0  0  0  0  0  0
   -0.7500   -1.2990    0.0000 C   0  0  0  0  0  0  0  0  0  0  0  0
   -1.5000    0.0000    0.0000 C   0  0  0  0  0  0  0  0  0  0  0  0
   -3.0000    0.0000    0.0000 C   0  0  0  0  0  0  0  0  0  0  0  0
   -3.7500    1.2990    0.0000 N   0  0  0  0  0  0  0  0  0  0  0  0
   -5.2500    1.2990    0.0000 R   0  0  0  0  0  1  0  0  0  1  0  0
   -0.7500    1.2990    0.0000 C   0  0  0  0  0  0  0  0  0  0  0  0
    0.7500    1.2990    0.0000 C   0  0  0  0  0  0  0  0  0  0  0  0
    6.0000   -2.5981    0.0000 R   0  0  0  0  0  1  0  0  0  2  0  0
  1  2  2  0
  2  3  1  0
  3  4  1  0
  4  5  1  0
  5  6  2  0
  6  7  1  0
  7  8  2  0
  8  9  1  0
  9 10  1  0
 10 11  1  0
  8 12  1  0
 12 13  2  0
  2 14  1  0
 13  5  1  0
M  END
>  <id>  (243) 
2e51ad36-d009-4124-98a7-6a41aec89f38

>  <Version>  (243) 
0

>  <Alias>  (243) 
4Mppa

>  <Type>  (243) 
amino_acid

>  <Smiles>  (243) 
O=C(CCc1ccc(CN[*:1])cc1)[*:2]

>  <ProtectedSmiles>  (243) 
O=C(O)CCc1ccc(CNC(=O)OCC2c3ccccc3-c3ccccc32)cc1

>  <CAS>  (243) 
919528-86-2

>  <User>  (243) 
mischa.s

>  <StereoComment>  (243) 
as drawn

>  <Name>  (243) 
3-{4-[({[(9H-fluoren-9-yl)methoxy]carbonyl}amino)methyl]phenyl}propanoic acid

>  <Code>  (243) 
4Mppa

>  <AliasLowerCase>  (243) 
4mppa

>  <LatestVersion>  (243) 
0.0

>  <createdAt>  (243) 
2026-01-14T11:37:50.943Z

>  <updatedAt>  (243) 
2026-01-14T11:37:50.943Z

>  <NumRotatableBonds>  (243) 
5

>  <is_N_methyl>  (243) 
False

>  <is_a_methyl>  (243) 
False

>  <is_alpha_aa>  (243) 
False

>  <is_beta_aa>  (243) 
False

>  <is_S100_aa>  (243) 
False

>  <Murcko_SMILES>  (243) 
c1ccccc1

$$$$

     RDKit          2D

 11 11  0  0  0  0  0  0  0  0999 V2000
    3.5260   -1.2990    0.0000 C   0  0  0  0  0  0  0  0  0  0  0  0
    2.7760    0.0000    0.0000 O   0  0  0  0  0  0  0  0  0  0  0  0
    1.2760    0.0000    0.0000 C   0  0  0  0  0  0  0  0  0  0  0  0
    0.3943    1.2135    0.0000 C   0  0  0  0  0  0  0  0  0  0  0  0
   -1.0323    0.7500    0.0000 C   0  0  0  0  0  0  0  0  0  0  0  0
   -2.2458    1.6317    0.0000 C   0  0  0  0  0  0  0  0  0  0  0  0
   -3.6161    1.0216    0.0000 O   0  0  0  0  0  0  0  0  0  0  0  0
   -2.0890    3.1235    0.0000 R   0  0  0  0  0  1  0  0  0  2  0  0
   -1.0323   -0.7500    0.0000 N   0  0  0  0  0  0  0  0  0  0  0  0
   -2.2458   -1.6317    0.0000 R   0  0  0  0  0  1  0  0  0  1  0  0
    0.3943   -1.2135    0.0000 C   0  0  0  0  0  0  0  0  0  0  0  0
  1  2  1  0
  3  2  1  6
  3  4  1  0
  4  5  1  0
  5  6  1  6
  6  7  2  0
  6  8  1  0
  5  9  1  0
  9 10  1  0
  9 11  1  0
 11  3  1  0
M  END
>  <id>  (244) 
070a4e07-aadb-49ca-a0e9-dacb3231b4cc

>  <Version>  (244) 
0

>  <Alias>  (244) 
Pro(4S-OMe)

>  <Type>  (244) 
amino_acid

>  <Smiles>  (244) 
CO[C@H]1C[C@@H](C(=O)[*:2])N([*:1])C1

>  <ProtectedSmiles>  (244) 
CO[C@H]1C[C@@H](C(=O)O)N(C(=O)OCC2c3ccccc3-c3ccccc32)C1

>  <CAS>  (244) 
1190617-97-0

>  <User>  (244) 
mischa.s

>  <StereoComment>  (244) 
as drawn

>  <Name>  (244) 
(4S)-1-Fmoc-4-methoxy-L-proline

>  <Code>  (244) 
Pro(4S-OMe)

>  <AliasLowerCase>  (244) 
pro(4s-ome)

>  <LatestVersion>  (244) 
0.0

>  <createdAt>  (244) 
2026-01-14T11:36:33.915Z

>  <updatedAt>  (244) 
2026-01-14T11:36:33.915Z

>  <NumRotatableBonds>  (244) 
2

>  <is_N_methyl>  (244) 
False

>  <is_a_methyl>  (244) 
False

>  <is_alpha_aa>  (244) 
True

>  <is_beta_aa>  (244) 
False

>  <is_S100_aa>  (244) 
False

>  <Murcko_SMILES>  (244) 
C1CCNC1

$$$$

     RDKit          2D

 12 12  0  0  0  0  0  0  0  0999 V2000
    5.7760    0.0000    0.0000 O   0  0  0  0  0  0  0  0  0  0  0  0
    5.0260   -1.2990    0.0000 C   0  0  0  0  0  0  0  0  0  0  0  0
    3.5260   -1.2990    0.0000 C   0  0  0  0  0  0  0  0  0  0  0  0
    2.7760    0.0000    0.0000 C   0  0  0  0  0  0  0  0  0  0  0  0
    1.2760    0.0000    0.0000 C   0  0  0  0  0  0  0  0  0  0  0  0
    0.3943    1.2135    0.0000 C   0  0  0  0  0  0  0  0  0  0  0  0
   -1.0323    0.7500    0.0000 C   0  0  0  0  0  0  0  0  0  0  0  0
   -1.0323   -0.7500    0.0000 C   0  0  0  0  0  0  0  0  0  0  0  0
    0.3943   -1.2135    0.0000 C   0  0  0  0  0  0  0  0  0  0  0  0
    2.7760   -2.5981    0.0000 N   0  0  0  0  0  0  0  0  0  0  0  0
    3.5260   -3.8971    0.0000 R   0  0  0  0  0  1  0  0  0  1  0  0
    5.7760   -2.5981    0.0000 R   0  0  0  0  0  1  0  0  0  2  0  0
  1  2  2  0
  2  3  1  0
  3  4  1  6
  4  5  1  0
  5  6  1  0
  6  7  1  0
  7  8  1  0
  8  9  1  0
  3 10  1  0
 10 11  1  0
  2 12  1  0
  9  5  1  0
M  END
>  <id>  (245) 
a31b99dc-58ef-4a1e-bd5d-43706a818d65

>  <Version>  (245) 
0

>  <Alias>  (245) 
D-Cpa

>  <Type>  (245) 
amino_acid

>  <Smiles>  (245) 
O=C([C@@H](CC1CCCC1)N[*:1])[*:2]

>  <ProtectedSmiles>  (245) 
O=C(N[C@H](CC1CCCC1)C(=O)O)OCC1c2ccccc2-c2ccccc21

>  <CAS>  (245) 
1262802-59-4

>  <User>  (245) 
mischa.s

>  <StereoComment>  (245) 
as drawn

>  <Name>  (245) 
Cyclopentanepropanoic acid, Î±-[[(9H-fluoren-9-ylmethoxy)carbonyl]amino]-, (Î±R)-

>  <Code>  (245) 
D-Cpa

>  <AliasLowerCase>  (245) 
d-cpa

>  <LatestVersion>  (245) 
0.0

>  <createdAt>  (245) 
2026-01-14T11:37:34.096Z

>  <updatedAt>  (245) 
2026-01-14T11:37:34.096Z

>  <NumRotatableBonds>  (245) 
4

>  <is_N_methyl>  (245) 
False

>  <is_a_methyl>  (245) 
False

>  <is_alpha_aa>  (245) 
True

>  <is_beta_aa>  (245) 
False

>  <is_S100_aa>  (245) 
False

>  <Murcko_SMILES>  (245) 
C1CCCC1

$$$$

     RDKit          2D

  8  7  0  0  0  0  0  0  0  0999 V2000
    5.1962   -0.0000    0.0000 C   0  0  0  0  0  0  0  0  0  0  0  0
    3.8971    0.7500    0.0000 C   0  0  0  0  0  0  0  0  0  0  0  0
    2.5981   -0.0000    0.0000 C   0  0  0  0  0  0  0  0  0  0  0  0
    1.2990    0.7500    0.0000 N   0  0  0  0  0  0  0  0  0  0  0  0
    0.0000    0.0000    0.0000 R   0  0  0  0  0  1  0  0  0  1  0  0
    2.5981   -1.5000    0.0000 C   0  0  0  0  0  0  0  0  0  0  0  0
    1.2990   -2.2500    0.0000 O   0  0  0  0  0  0  0  0  0  0  0  0
    3.8971   -2.2500    0.0000 R   0  0  0  0  0  1  0  0  0  2  0  0
  1  2  1  0
  2  3  1  0
  3  4  1  0
  4  5  1  0
  3  6  1  0
  6  7  2  0
  6  8  1  0
M  END
>  <id>  (246) 
266bad0c-cc7b-4311-b576-42ecca4af32b

>  <Version>  (246) 
0

>  <Alias>  (246) 
rac-Abu

>  <Type>  (246) 
amino_acid

>  <Smiles>  (246) 
CCC(N[*:1])C(=O)[*:2]

>  <ProtectedSmiles>  (246) 
CCC(NC(=O)OCC1c2ccccc2-c2ccccc21)C(=O)O

>  <CAS>  (246) 
174879-28-8

>  <User>  (246) 
Sevan.habeshian@orbismedicines.com

>  <StereoComment>  (246) 
as drawn

>  <Name>  (246) 
N/A

>  <Code>  (246) 
rac-Abu

>  <AliasLowerCase>  (246) 
rac-abu

>  <LatestVersion>  (246) 
0.0

>  <createdAt>  (246) 
2026-02-13T09:56:35.394Z

>  <updatedAt>  (246) 
2026-02-13T09:56:35.394Z

>  <NumRotatableBonds>  (246) 
3

>  <is_N_methyl>  (246) 
False

>  <is_a_methyl>  (246) 
False

>  <is_alpha_aa>  (246) 
True

>  <is_beta_aa>  (246) 
False

>  <is_S100_aa>  (246) 
False

>  <Murcko_SMILES>  (246) 


$$$$

     RDKit          2D

 14 14  0  0  0  0  0  0  0  0999 V2000
    3.7500   -1.2990    0.0000 C   0  0  0  0  0  0  0  0  0  0  0  0
    3.0000    0.0000    0.0000 C   0  0  0  0  0  0  0  0  0  0  0  0
    3.7500    1.2990    0.0000 C   0  0  0  0  0  0  0  0  0  0  0  0
    3.0000    2.5981    0.0000 O   0  0  0  0  0  0  0  0  0  0  0  0
    5.2500    1.2990    0.0000 R   0  0  0  0  0  1  0  0  0  2  0  0
    1.5000    0.0000    0.0000 C   0  0  0  0  0  0  0  0  0  0  0  0
    0.7500   -1.2990    0.0000 C   0  0  0  0  0  0  0  0  0  0  0  0
   -0.7500   -1.2990    0.0000 C   0  0  0  0  0  0  0  0  0  0  0  0
   -1.5000    0.0000    0.0000 C   0  0  0  0  0  0  0  0  0  0  0  0
   -0.7500    1.2990    0.0000 C   0  0  0  0  0  0  0  0  0  0  0  0
   -1.5000    2.5981    0.0000 C   0  0  0  0  0  0  0  0  0  0  0  0
   -0.7500    3.8971    0.0000 N   0  0  0  0  0  0  0  0  0  0  0  0
   -1.5000    5.1962    0.0000 R   0  0  0  0  0  1  0  0  0  1  0  0
    0.7500    1.2990    0.0000 C   0  0  0  0  0  0  0  0  0  0  0  0
  1  2  1  0
  2  3  1  0
  3  4  2  0
  3  5  1  0
  2  6  1  0
  6  7  2  0
  7  8  1  0
  8  9  2  0
  9 10  1  0
 10 11  1  0
 11 12  1  0
 12 13  1  0
 10 14  2  0
 14  6  1  0
M  END
>  <id>  (247) 
e00dc5da-bbd1-477f-b6ef-d7acc3c98d09

>  <Version>  (247) 
0

>  <Alias>  (247) 
3AMPPA

>  <Type>  (247) 
amino_acid

>  <Smiles>  (247) 
CC(C(=O)[*:2])c1cccc(CN[*:1])c1

>  <ProtectedSmiles>  (247) 
CC(C(=O)O)c1cccc(CNC(=O)OCC2c3ccccc3-c3ccccc32)c1

>  <CAS>  (247) 
2230803-11-7

>  <User>  (247) 
Sevan.habeshian@orbismedicines.com

>  <StereoComment>  (247) 
as drawn

>  <Name>  (247) 
N/A

>  <Code>  (247) 
3AMPPA

>  <AliasLowerCase>  (247) 
3amppa

>  <LatestVersion>  (247) 
0.0

>  <createdAt>  (247) 
2026-02-13T09:56:36.277Z

>  <updatedAt>  (247) 
2026-02-13T09:56:36.277Z

>  <NumRotatableBonds>  (247) 
4

>  <is_N_methyl>  (247) 
False

>  <is_a_methyl>  (247) 
False

>  <is_alpha_aa>  (247) 
False

>  <is_beta_aa>  (247) 
False

>  <is_S100_aa>  (247) 
False

>  <Murcko_SMILES>  (247) 
c1ccccc1

$$$$

     RDKit          2D

 14 14  0  0  0  0  0  0  0  0999 V2000
    3.7500   -1.2990    0.0000 C   0  0  0  0  0  0  0  0  0  0  0  0
    3.0000    0.0000    0.0000 O   0  0  0  0  0  0  0  0  0  0  0  0
    1.5000    0.0000    0.0000 C   0  0  0  0  0  0  0  0  0  0  0  0
    0.7500   -1.2990    0.0000 C   0  0  0  0  0  0  0  0  0  0  0  0
   -0.7500   -1.2990    0.0000 C   0  0  0  0  0  0  0  0  0  0  0  0
   -1.5000    0.0000    0.0000 C   0  0  0  0  0  0  0  0  0  0  0  0
   -3.0000    0.0000    0.0000 C   0  0  0  0  0  0  0  0  0  0  0  0
   -3.7500    1.2990    0.0000 N   0  0  0  0  0  0  0  0  0  0  0  0
   -5.2500    1.2990    0.0000 R   0  0  0  0  0  1  0  0  0  1  0  0
   -0.7500    1.2990    0.0000 C   0  0  0  0  0  0  0  0  0  0  0  0
    0.7500    1.2990    0.0000 C   0  0  0  0  0  0  0  0  0  0  0  0
    1.5000    2.5981    0.0000 C   0  0  0  0  0  0  0  0  0  0  0  0
    0.7500    3.8971    0.0000 O   0  0  0  0  0  0  0  0  0  0  0  0
    3.0000    2.5981    0.0000 R   0  0  0  0  0  1  0  0  0  2  0  0
  1  2  1  0
  2  3  1  0
  3  4  2  0
  4  5  1  0
  5  6  2  0
  6  7  1  0
  7  8  1  0
  8  9  1  0
  6 10  1  0
 10 11  2  0
 11 12  1  0
 12 13  2  0
 12 14  1  0
 11  3  1  0
M  END
>  <id>  (248) 
906d6142-51bd-400c-8f58-ef2cf0776887

>  <Version>  (248) 
0

>  <Alias>  (248) 
5MeO-3AMBA

>  <Type>  (248) 
amino_acid

>  <Smiles>  (248) 
COc1ccc(CN[*:1])cc1C(=O)[*:2]

>  <ProtectedSmiles>  (248) 
COc1ccc(CNC(=O)OCC2c3ccccc3-c3ccccc32)cc1C(=O)O

>  <CAS>  (248) 
2137787-51-8

>  <User>  (248) 
Sevan.habeshian@orbismedicines.com

>  <StereoComment>  (248) 
as drawn

>  <Name>  (248) 
N/A

>  <Code>  (248) 
5MeO-3AMBA

>  <AliasLowerCase>  (248) 
5meo-3amba

>  <LatestVersion>  (248) 
0.0

>  <createdAt>  (248) 
2026-02-13T09:56:35.492Z

>  <updatedAt>  (248) 
2026-02-13T09:56:35.492Z

>  <NumRotatableBonds>  (248) 
4

>  <is_N_methyl>  (248) 
False

>  <is_a_methyl>  (248) 
False

>  <is_alpha_aa>  (248) 
False

>  <is_beta_aa>  (248) 
False

>  <is_S100_aa>  (248) 
False

>  <Murcko_SMILES>  (248) 
c1ccccc1

$$$$

     RDKit          2D

 12 12  0  0  0  0  0  0  0  0999 V2000
    2.7760    0.0000    0.0000 C   0  0  0  0  0  0  0  0  0  0  0  0
    1.2760    0.0000    0.0000 N   0  0  0  0  0  0  0  0  0  0  0  0
    0.3943    1.2135    0.0000 N   0  0  0  0  0  0  0  0  0  0  0  0
   -1.0323    0.7500    0.0000 C   0  0  0  0  0  0  0  0  0  0  0  0
   -2.2458    1.6317    0.0000 C   0  0  0  0  0  0  0  0  0  0  0  0
   -2.0890    3.1235    0.0000 N   0  0  0  0  0  0  0  0  0  0  0  0
   -3.3025    4.0051    0.0000 R   0  0  0  0  0  1  0  0  0  1  0  0
   -1.0323   -0.7500    0.0000 C   0  0  0  0  0  0  0  0  0  0  0  0
    0.3943   -1.2135    0.0000 C   0  0  0  0  0  0  0  0  0  0  0  0
    0.8578   -2.6401    0.0000 C   0  0  0  0  0  0  0  0  0  0  0  0
    2.3250   -2.9520    0.0000 O   0  0  0  0  0  0  0  0  0  0  0  0
   -0.1459   -3.7548    0.0000 R   0  0  0  0  0  1  0  0  0  2  0  0
  1  2  1  0
  2  3  1  0
  3  4  2  0
  4  5  1  0
  5  6  1  0
  6  7  1  0
  4  8  1  0
  8  9  2  0
  9 10  1  0
 10 11  2  0
 10 12  1  0
  9  2  1  0
M  END
>  <id>  (249) 
9ba77d47-43a9-43b1-a302-66506b48bf98

>  <Version>  (249) 
0

>  <Alias>  (249) 
MMPzCA

>  <Type>  (249) 
amino_acid

>  <Smiles>  (249) 
Cn1nc(CN[*:1])cc1C(=O)[*:2]

>  <ProtectedSmiles>  (249) 
Cn1nc(CNC(=O)OCC2c3ccccc3-c3ccccc32)cc1C(=O)O

>  <CAS>  (249) 
2137821-77-1

>  <User>  (249) 
Sevan.habeshian@orbismedicines.com

>  <StereoComment>  (249) 
as drawn

>  <Name>  (249) 
N/A

>  <Code>  (249) 
MMPzCA

>  <AliasLowerCase>  (249) 
mmpzca

>  <LatestVersion>  (249) 
0.0

>  <createdAt>  (249) 
2026-02-13T09:56:35.508Z

>  <updatedAt>  (249) 
2026-02-13T09:56:35.508Z

>  <NumRotatableBonds>  (249) 
3

>  <is_N_methyl>  (249) 
False

>  <is_a_methyl>  (249) 
False

>  <is_alpha_aa>  (249) 
False

>  <is_beta_aa>  (249) 
False

>  <is_S100_aa>  (249) 
False

>  <Murcko_SMILES>  (249) 
c1cn[nH]c1

$$$$

     RDKit          2D

  9  8  0  0  0  0  0  0  0  0999 V2000
    6.4952    2.2500    0.0000 O   0  0  0  0  0  0  0  0  0  0  0  0
    6.4952    0.7500    0.0000 C   0  0  0  0  0  0  0  0  0  0  0  0
    5.1962   -0.0000    0.0000 C   0  0  0  0  0  0  0  0  0  0  0  0
    3.8971    0.7500    0.0000 C   0  0  0  0  0  0  0  0  0  0  0  0
    3.8971    2.2500    0.0000 O   0  0  0  0  0  0  0  0  0  0  0  0
    2.5981   -0.0000    0.0000 C   0  0  0  0  0  0  0  0  0  0  0  0
    1.2990    0.7500    0.0000 N   0  0  0  0  0  0  0  0  0  0  0  0
    0.0000    0.0000    0.0000 R   0  0  0  0  0  1  0  0  0  1  0  0
    7.7942   -0.0000    0.0000 R   0  0  0  0  0  1  0  0  0  2  0  0
  1  2  2  0
  2  3  1  0
  3  4  1  0
  4  5  1  0
  4  6  1  0
  6  7  1  0
  7  8  1  0
  2  9  1  0
M  END
>  <id>  (250) 
e8038683-c2b1-4df2-91d4-b8535e024e6b

>  <Version>  (250) 
0

>  <Alias>  (250) 
3-OH-GABA

>  <Type>  (250) 
amino_acid

>  <Smiles>  (250) 
O=C(CC(O)CN[*:1])[*:2]

>  <ProtectedSmiles>  (250) 
O=C(O)CC(O)CNC(=O)OCC1c2ccccc2-c2ccccc21

>  <CAS>  (250) 
184763-08-4

>  <User>  (250) 
Sevan.habeshian@orbismedicines.com

>  <StereoComment>  (250) 
as drawn

>  <Name>  (250) 
N/A

>  <Code>  (250) 
3-OH-GABA

>  <AliasLowerCase>  (250) 
3-oh-gaba

>  <LatestVersion>  (250) 
0.0

>  <createdAt>  (250) 
2026-02-13T09:56:35.393Z

>  <updatedAt>  (250) 
2026-02-13T09:56:35.393Z

>  <NumRotatableBonds>  (250) 
4

>  <is_N_methyl>  (250) 
False

>  <is_a_methyl>  (250) 
False

>  <is_alpha_aa>  (250) 
False

>  <is_beta_aa>  (250) 
False

>  <is_S100_aa>  (250) 
False

>  <Murcko_SMILES>  (250) 


$$$$

     RDKit          2D

  9  9  0  0  0  0  0  0  0  0999 V2000
    3.5260    1.2990    0.0000 O   0  0  0  0  0  0  0  0  0  0  0  0
    2.7760    0.0000    0.0000 C   0  0  0  0  0  0  0  0  0  0  0  0
    1.2760    0.0000    0.0000 C   0  0  0  0  0  0  0  0  0  0  0  0
    0.3943    1.2135    0.0000 C   0  0  0  0  0  0  0  0  0  0  0  0
   -1.0323    0.7500    0.0000 C   0  0  0  0  0  0  0  0  0  0  0  0
   -1.0323   -0.7500    0.0000 C   0  0  0  0  0  0  0  0  0  0  0  0
    0.3943   -1.2135    0.0000 N   0  0  0  0  0  0  0  0  0  0  0  0
    0.8578   -2.6401    0.0000 R   0  0  0  0  0  1  0  0  0  1  0  0
    3.5260   -1.2990    0.0000 R   0  0  0  0  0  1  0  0  0  2  0  0
  1  2  2  0
  2  3  1  0
  3  4  1  0
  4  5  1  0
  5  6  1  0
  6  7  1  0
  7  8  1  0
  2  9  1  0
  7  3  1  0
M  END
>  <id>  (251) 
4187e5d6-a634-4f38-8c20-ebb623de2051

>  <Version>  (251) 
0

>  <Alias>  (251) 
rac-Pro

>  <Type>  (251) 
amino_acid

>  <Smiles>  (251) 
O=C(C1CCCN1[*:1])[*:2]

>  <ProtectedSmiles>  (251) 
O=C(O)C1CCCN1C(=O)OCC1c2ccccc2-c2ccccc21

>  <CAS>  (251) 
144829-96-9

>  <User>  (251) 
Sevan.habeshian@orbismedicines.com

>  <StereoComment>  (251) 
as drawn

>  <Name>  (251) 
N/A

>  <Code>  (251) 
rac-Pro

>  <AliasLowerCase>  (251) 
rac-pro

>  <LatestVersion>  (251) 
0.0

>  <createdAt>  (251) 
2026-02-13T09:56:35.392Z

>  <updatedAt>  (251) 
2026-02-13T09:56:35.392Z

>  <NumRotatableBonds>  (251) 
1

>  <is_N_methyl>  (251) 
False

>  <is_a_methyl>  (251) 
False

>  <is_alpha_aa>  (251) 
True

>  <is_beta_aa>  (251) 
False

>  <is_S100_aa>  (251) 
False

>  <Murcko_SMILES>  (251) 
C1CCNC1

$$$$

     RDKit          2D

 11 10  0  0  0  0  0  0  0  0999 V2000
    6.4952   -2.2500    0.0000 C   0  0  0  0  0  0  0  0  0  0  0  0
    5.1962   -1.5000    0.0000 C   0  0  0  0  0  0  0  0  0  0  0  0
    5.1962   -0.0000    0.0000 C   0  0  0  0  0  0  0  0  0  0  0  0
    6.4952    0.7500    0.0000 C   0  0  0  0  0  0  0  0  0  0  0  0
    3.8971    0.7500    0.0000 C   0  0  0  0  0  0  0  0  0  0  0  0
    2.5981   -0.0000    0.0000 C   0  0  0  0  0  0  0  0  0  0  0  0
    1.2990    0.7500    0.0000 C   0  0  0  0  0  0  0  0  0  0  0  0
    1.2990    2.2500    0.0000 O   0  0  0  0  0  0  0  0  0  0  0  0
    0.0000    0.0000    0.0000 R   0  0  0  0  0  1  0  0  0  2  0  0
    3.8971    2.2500    0.0000 N   0  0  0  0  0  0  0  0  0  0  0  0
    5.1962    3.0000    0.0000 R   0  0  0  0  0  1  0  0  0  1  0  0
  1  2  1  0
  2  3  1  0
  3  4  1  1
  3  5  1  0
  5  6  1  1
  6  7  1  0
  7  8  2  0
  7  9  1  0
  5 10  1  0
 10 11  1  0
M  END
>  <id>  (252) 
5a6cdaa0-58f6-4f1f-8ed1-a2fc0f9371ba

>  <Version>  (252) 
0

>  <Alias>  (252) 
B-hIle

>  <Type>  (252) 
amino_acid

>  <Smiles>  (252) 
CC[C@H](C)[C@@H](CC(=O)[*:2])N[*:1]

>  <ProtectedSmiles>  (252) 
CC[C@H](C)[C@@H](CC(=O)O)NC(=O)OCC1c2ccccc2-c2ccccc21

>  <CAS>  (252) 
193954-27-7

>  <User>  (252) 
sevan.h

>  <StereoComment>  (252) 
as drawn

>  <Name>  (252) 
(3R,4S)-3-(9H-fluoren-9-ylmethoxycarbonylamino)-4-methyl-hexanoic acid

>  <Code>  (252) 
B-hIle

>  <AliasLowerCase>  (252) 
b-hile

>  <LatestVersion>  (252) 
0.0

>  <createdAt>  (252) 
2026-01-14T12:15:39.630Z

>  <updatedAt>  (252) 
2026-01-14T12:15:39.630Z

>  <NumRotatableBonds>  (252) 
5

>  <is_N_methyl>  (252) 
False

>  <is_a_methyl>  (252) 
False

>  <is_alpha_aa>  (252) 
False

>  <is_beta_aa>  (252) 
True

>  <is_S100_aa>  (252) 
False

>  <Murcko_SMILES>  (252) 


$$$$

     RDKit          2D

 13 14  0  0  0  0  0  0  0  0999 V2000
    3.7548   -2.1855    0.0000 O   0  0  0  0  0  0  0  0  0  0  0  0
    2.6401   -3.1891    0.0000 C   0  0  0  0  0  0  0  0  0  0  0  0
    1.2135   -2.7256    0.0000 C   0  0  0  0  0  0  0  0  0  0  0  0
    0.0000   -3.6073    0.0000 C   0  0  0  0  0  0  0  0  0  0  0  0
   -1.2135   -2.7256    0.0000 C   0  0  0  0  0  0  0  0  0  0  0  0
   -0.7500   -1.2990    0.0000 N   0  0  0  0  0  0  0  0  0  0  0  0
    0.7500   -1.2990    0.0000 C   0  0  0  0  0  0  0  0  0  0  0  0
    1.5000    0.0000    0.0000 C   0  0  0  0  0  0  0  0  0  0  0  0
    0.7500    1.2990    0.0000 N   0  0  0  0  0  0  0  0  0  0  0  0
    1.5000    2.5981    0.0000 R   0  0  0  0  0  1  0  0  0  1  0  0
   -0.7500    1.2990    0.0000 C   0  0  0  0  0  0  0  0  0  0  0  0
   -1.5000    0.0000    0.0000 C   0  0  0  0  0  0  0  0  0  0  0  0
    2.9520   -4.6564    0.0000 R   0  0  0  0  0  1  0  0  0  2  0  0
  1  2  2  0
  2  3  1  0
  3  4  1  0
  4  5  2  0
  5  6  1  0
  6  7  1  0
  7  8  1  0
  8  9  1  0
  9 10  1  0
  9 11  1  0
 11 12  1  0
  2 13  1  0
  7  3  2  0
 12  6  1  0
M  END
>  <id>  (253) 
8021e008-1f8a-4815-b1c3-ff9b042557c7

>  <Version>  (253) 
0

>  <Alias>  (253) 
PyrPzCA

>  <Type>  (253) 
amino_acid

>  <Smiles>  (253) 
O=C(c1ccn2c1CN([*:1])CC2)[*:2]

>  <ProtectedSmiles>  (253) 
O=C(O)c1ccn2c1CN(C(=O)OCC1c3ccccc3-c3ccccc31)CC2

>  <CAS>  (253) 
2219371-39-6

>  <User>  (253) 
Sevan.habeshian@orbismedicines.com

>  <StereoComment>  (253) 
as drawn

>  <Name>  (253) 
N/A

>  <Code>  (253) 
PyrPzCA

>  <AliasLowerCase>  (253) 
pyrpzca

>  <LatestVersion>  (253) 
0.0

>  <createdAt>  (253) 
2026-02-13T09:56:36.369Z

>  <updatedAt>  (253) 
2026-02-13T09:56:36.369Z

>  <NumRotatableBonds>  (253) 
1

>  <is_N_methyl>  (253) 
False

>  <is_a_methyl>  (253) 
False

>  <is_alpha_aa>  (253) 
False

>  <is_beta_aa>  (253) 
False

>  <is_S100_aa>  (253) 
False

>  <Murcko_SMILES>  (253) 
c1cc2n(c1)CCNC2

$$$$

     RDKit          2D

 10 10  0  0  0  0  0  0  0  0999 V2000
    4.6160   -3.8971    0.0000 O   0  0  0  0  0  0  0  0  0  0  0  0
    3.1160   -3.8971    0.0000 C   0  0  0  0  0  0  0  0  0  0  0  0
    2.3660   -2.5981    0.0000 C   0  0  0  0  0  0  0  0  0  0  0  0
    3.1160   -1.2990    0.0000 N   0  0  0  0  0  0  0  0  0  0  0  0
    2.3660    0.0000    0.0000 C   0  0  0  0  0  0  0  0  0  0  0  0
    0.8660    0.0000    0.0000 C   0  0  0  0  0  0  0  0  0  0  0  0
   -0.4330    0.7500    0.0000 C   0  0  0  0  0  0  0  0  0  0  0  0
   -0.4330   -0.7500    0.0000 C   0  0  0  0  0  0  0  0  0  0  0  0
    4.6160   -1.2990    0.0000 R   0  0  0  0  0  1  0  0  0  1  0  0
    2.3660   -5.1962    0.0000 R   0  0  0  0  0  1  0  0  0  2  0  0
  1  2  2  0
  2  3  1  0
  3  4  1  0
  4  5  1  0
  5  6  1  0
  6  7  1  0
  7  8  1  0
  4  9  1  0
  2 10  1  0
  8  6  1  0
M  END
>  <id>  (254) 
df7a821d-d228-46b4-90e3-9bcfde2b56e8

>  <Version>  (254) 
0

>  <Alias>  (254) 
N(Cpm)Gly

>  <Type>  (254) 
amino_acid

>  <Smiles>  (254) 
O=C(CN(CC1CC1)[*:1])[*:2]

>  <ProtectedSmiles>  (254) 
O=C(O)CN(CC1CC1)C(=O)OCC1c2ccccc2-c2ccccc21

>  <CAS>  (254) 
1341306-32-8

>  <User>  (254) 
angelica.l

>  <StereoComment>  (254) 
as drawn

>  <Name>  (254) 
N-Fmoc-N-(cyclopropylmethyl)-glycine

>  <Code>  (254) 
N(Cpm)Gly

>  <AliasLowerCase>  (254) 
n(cpm)gly

>  <LatestVersion>  (254) 
0.0

>  <createdAt>  (254) 
2026-01-14T11:36:09.109Z

>  <updatedAt>  (254) 
2026-01-14T11:36:09.109Z

>  <NumRotatableBonds>  (254) 
4

>  <is_N_methyl>  (254) 
False

>  <is_a_methyl>  (254) 
False

>  <is_alpha_aa>  (254) 
True

>  <is_beta_aa>  (254) 
False

>  <is_S100_aa>  (254) 
False

>  <Murcko_SMILES>  (254) 
C1CC1

$$$$

     RDKit          2D

  0  0  0  0  0  0  0  0  0  0999 V3000
M  V30 BEGIN CTAB
M  V30 COUNTS 13 14 0 0 0
M  V30 BEGIN ATOM
M  V30 1 O 3.754828 -2.185452 0.000000 0
M  V30 2 C 2.640110 -3.189148 0.000000 0
M  V30 3 C 1.213525 -2.725623 0.000000 0
M  V30 4 C 0.750000 -1.299038 0.000000 0
M  V30 5 C 1.500000 0.000000 0.000000 0
M  V30 6 C 0.750000 1.299038 0.000000 0
M  V30 7 C -0.750000 1.299038 0.000000 0
M  V30 8 C -1.500000 0.000000 0.000000 0
M  V30 9 C -0.750000 -1.299038 0.000000 0
M  V30 10 C -1.213525 -2.725623 0.000000 0
M  V30 11 N -0.000000 -3.607301 0.000000 0
M  V30 12 "NOT [H]" -0.000000 -5.107301 0.000000 1
M  V30 13 "NOT [H]" 2.951978 -4.656370 0.000000 2
M  V30 END ATOM
M  V30 BEGIN BOND
M  V30 1 2 1 2
M  V30 2 1 2 3
M  V30 3 1 3 4
M  V30 4 1 4 5 CFG=3
M  V30 5 1 5 6
M  V30 6 1 6 7
M  V30 7 1 7 8
M  V30 8 1 9 8 CFG=3
M  V30 9 1 9 10
M  V30 10 1 10 11
M  V30 11 1 11 12
M  V30 12 1 2 13
M  V30 13 1 11 3
M  V30 14 1 9 4
M  V30 END BOND
M  V30 BEGIN COLLECTION
M  V30 MDLV30/STERAC1 ATOMS=(2 4 9)
M  V30 END COLLECTION
M  V30 END CTAB
M  END
>  <id>  (255) 
c2815bc9-bee3-4c4a-adb2-26807a722501

>  <Version>  (255) 
0

>  <Alias>  (255) 
S-3,4-chPro

>  <Type>  (255) 
amino_acid

>  <Smiles>  (255) 
O=C(C1[C@H]2CCCC[C@H]2CN1[*:1])[*:2] |&1:3,8|

>  <ProtectedSmiles>  (255) 
O=C(O)C1[C@H]2CCCC[C@H]2CN1C(=O)OCC1c2ccccc2-c2ccccc21 |&1:4,9|

>  <CAS>  (255) 
1564677-76-4

>  <User>  (255) 
marie.g

>  <StereoComment>  (255) 
rac-cis

>  <Name>  (255) 
rac-(3aR,7aS)-2-(9H-fluoren-9-ylmethoxycarbonyl)-1,3,3a,4,5,6,7,7a-octahydroisoindole-1-carboxylic acid

>  <Code>  (255) 
S-3,4-chPro

>  <AliasLowerCase>  (255) 
s-3,4-chpro

>  <LatestVersion>  (255) 
0.0

>  <createdAt>  (255) 
2026-01-14T11:33:41.415Z

>  <updatedAt>  (255) 
2026-01-14T11:33:41.415Z

>  <NumRotatableBonds>  (255) 
1

>  <is_N_methyl>  (255) 
False

>  <is_a_methyl>  (255) 
False

>  <is_alpha_aa>  (255) 
True

>  <is_beta_aa>  (255) 
False

>  <is_S100_aa>  (255) 
False

>  <Murcko_SMILES>  (255) 
C1CC[C@H]2CNC[C@H]2C1 |&1:3,7|

$$$$

     RDKit          2D

 14 14  0  0  0  0  0  0  0  0999 V2000
    3.0000    0.0000    0.0000 C   0  0  0  0  0  0  0  0  0  0  0  0
    1.5000    0.0000    0.0000 C   0  0  0  0  0  0  0  0  0  0  0  0
    0.7500   -1.2990    0.0000 C   0  0  0  0  0  0  0  0  0  0  0  0
   -0.7500   -1.2990    0.0000 C   0  0  0  0  0  0  0  0  0  0  0  0
   -1.5000    0.0000    0.0000 C   0  0  0  0  0  0  0  0  0  0  0  0
   -0.7500    1.2990    0.0000 C   0  0  0  0  0  0  0  0  0  0  0  0
    0.7500    1.2990    0.0000 C   0  0  0  0  0  0  0  0  0  0  0  0
    1.5000    2.5981    0.0000 C   0  0  0  0  0  0  0  0  0  0  0  0
    0.7500    3.8971    0.0000 C   0  0  0  0  0  0  0  0  0  0  0  0
    1.5000    5.1962    0.0000 C   0  0  0  0  0  0  0  0  0  0  0  0
    3.0000    5.1962    0.0000 O   0  0  0  0  0  0  0  0  0  0  0  0
    0.7500    6.4952    0.0000 R   0  0  0  0  0  1  0  0  0  2  0  0
    3.0000    2.5981    0.0000 N   0  0  0  0  0  0  0  0  0  0  0  0
    3.7500    3.8971    0.0000 R   0  0  0  0  0  1  0  0  0  1  0  0
  1  2  1  0
  2  3  2  0
  3  4  1  0
  4  5  2  0
  5  6  1  0
  6  7  2  0
  7  8  1  0
  8  9  1  6
  9 10  1  0
 10 11  2  0
 10 12  1  0
  8 13  1  0
 13 14  1  0
  7  2  1  0
M  END
>  <id>  (256) 
922bbc3f-e799-4135-b7b0-35c02e1807bd

>  <Version>  (256) 
0

>  <Alias>  (256) 
3R-(2MePhe)PA

>  <Type>  (256) 
amino_acid

>  <Smiles>  (256) 
Cc1ccccc1[C@H](CC(=O)[*:2])N[*:1]

>  <ProtectedSmiles>  (256) 
Cc1ccccc1[C@H](CC(=O)O)NC(=O)OCC1c2ccccc2-c2ccccc21

>  <CAS>  (256) 
501015-26-5

>  <User>  (256) 
Sevan.habeshian@orbismedicines.com

>  <StereoComment>  (256) 
as drawn

>  <Name>  (256) 
N/A

>  <Code>  (256) 
3R-(2MePhe)PA

>  <AliasLowerCase>  (256) 
3r-(2mephe)pa

>  <LatestVersion>  (256) 
0.0

>  <createdAt>  (256) 
2026-02-13T09:56:36.401Z

>  <updatedAt>  (256) 
2026-02-13T09:56:36.401Z

>  <NumRotatableBonds>  (256) 
4

>  <is_N_methyl>  (256) 
False

>  <is_a_methyl>  (256) 
False

>  <is_alpha_aa>  (256) 
False

>  <is_beta_aa>  (256) 
True

>  <is_S100_aa>  (256) 
False

>  <Murcko_SMILES>  (256) 
c1ccccc1

$$$$

     RDKit          2D

 11 11  0  0  0  0  0  0  0  0999 V2000
    3.7500    1.2990    0.0000 O   0  0  0  0  0  0  0  0  0  0  0  0
    3.0000    0.0000    0.0000 C   0  0  0  0  0  0  0  0  0  0  0  0
    1.5000    0.0000    0.0000 C   0  0  0  0  0  0  0  0  0  0  0  0
    0.7500   -1.2990    0.0000 C   0  0  0  0  0  0  0  0  0  0  0  0
   -0.7500   -1.2990    0.0000 C   0  0  0  0  0  0  0  0  0  0  0  0
   -1.5000    0.0000    0.0000 C   0  0  0  0  0  0  0  0  0  0  0  0
   -3.0000    0.0000    0.0000 N   0  0  0  0  0  0  0  0  0  0  0  0
   -3.7500    1.2990    0.0000 R   0  0  0  0  0  1  0  0  0  1  0  0
   -0.7500    1.2990    0.0000 C   0  0  0  0  0  0  0  0  0  0  0  0
    0.7500    1.2990    0.0000 C   0  0  0  0  0  0  0  0  0  0  0  0
    3.7500   -1.2990    0.0000 R   0  0  0  0  0  1  0  0  0  2  0  0
  1  2  2  0
  3  2  1  1
  3  4  1  0
  4  5  1  0
  5  6  1  0
  6  7  1  6
  7  8  1  0
  6  9  1  0
  9 10  1  0
  2 11  1  0
 10  3  1  0
M  END
>  <id>  (257) 
1ef8837a-e501-423e-96ee-227936cdc26c

>  <Version>  (257) 
0

>  <Alias>  (257) 
1,4tACHC

>  <Type>  (257) 
amino_acid

>  <Smiles>  (257) 
O=C([C@H]1CC[C@H](N[*:1])CC1)[*:2]

>  <ProtectedSmiles>  (257) 
O=C(N[C@H]1CC[C@H](C(=O)O)CC1)OCC1c2ccccc2-c2ccccc21

>  <CAS>  (257) 
147900-46-7

>  <User>  (257) 
mischa.s

>  <StereoComment>  (257) 
as drawn

>  <Name>  (257) 
Fmoc-1,4-trans-Achc-OH

>  <Code>  (257) 
1,4tACHC

>  <AliasLowerCase>  (257) 
1,4tachc

>  <LatestVersion>  (257) 
0.0

>  <createdAt>  (257) 
2026-01-14T11:36:22.099Z

>  <updatedAt>  (257) 
2026-01-14T11:36:22.099Z

>  <NumRotatableBonds>  (257) 
2

>  <is_N_methyl>  (257) 
False

>  <is_a_methyl>  (257) 
False

>  <is_alpha_aa>  (257) 
False

>  <is_beta_aa>  (257) 
False

>  <is_S100_aa>  (257) 
False

>  <Murcko_SMILES>  (257) 
C1CCCCC1

$$$$

     RDKit          2D

 11 12  0  0  0  0  0  0  0  0999 V2000
   -2.5981   -2.5607    0.0000 O   0  0  0  0  0  0  0  0  0  0  0  0
   -1.2990   -3.3107    0.0000 C   0  0  0  0  0  0  0  0  0  0  0  0
   -0.0000   -2.5607    0.0000 C   0  0  0  0  0  0  0  0  0  0  0  0
   -0.0000   -1.0607    0.0000 C   0  0  0  0  0  0  0  0  0  0  0  0
    1.0607    0.0000    0.0000 C   0  0  0  0  0  0  0  0  0  0  0  0
    0.0000    1.0607    0.0000 C   0  0  0  0  0  0  0  0  0  0  0  0
    0.0000    2.5607    0.0000 N   0  0  0  0  0  0  0  0  0  0  0  0
    1.2990    3.3107    0.0000 R   0  0  0  0  0  1  0  0  0  1  0  0
   -1.0607    0.0000    0.0000 C   0  0  0  0  0  0  0  0  0  0  0  0
   -0.3607    0.0000    0.0000 C   0  0  0  0  0  0  0  0  0  0  0  0
   -1.2990   -4.8107    0.0000 R   0  0  0  0  0  1  0  0  0  2  0  0
  1  2  2  0
  2  3  1  0
  3  4  1  0
  4  5  1  0
  5  6  1  0
  6  7  1  0
  7  8  1  0
  6  9  1  0
  6 10  1  0
  2 11  1  0
  9  4  1  0
 10  4  1  0
M  END
>  <id>  (258) 
358728ab-5905-4786-ba6a-f5fc2200c809

>  <Version>  (258) 
0

>  <Alias>  (258) 
biCyc-1,1,1-PentAcAcid

>  <Type>  (258) 
amino_acid

>  <Smiles>  (258) 
O=C(CC12CC(N[*:1])(C1)C2)[*:2]

>  <ProtectedSmiles>  (258) 
O=C(O)CC12CC(NC(=O)OCC3c4ccccc4-c4ccccc43)(C1)C2

>  <CAS>  (258) 
2580227-48-9

>  <User>  (258) 
emile.b

>  <StereoComment>  (258) 
as drawn

>  <Name>  (258) 
2-[3-(9H-fluoren-9-ylmethoxycarbonylamino)-1-bicyclo[1.1.1]pentanyl]acetic acid

>  <Code>  (258) 
biCyc-1,1,1-PentAcAcid

>  <AliasLowerCase>  (258) 
bicyc-1,1,1-pentacacid

>  <LatestVersion>  (258) 
0.0

>  <createdAt>  (258) 
2026-01-14T11:33:37.911Z

>  <updatedAt>  (258) 
2026-01-14T11:33:37.911Z

>  <NumRotatableBonds>  (258) 
3

>  <is_N_methyl>  (258) 
False

>  <is_a_methyl>  (258) 
False

>  <is_alpha_aa>  (258) 
False

>  <is_beta_aa>  (258) 
False

>  <is_S100_aa>  (258) 
False

>  <Murcko_SMILES>  (258) 
C1C2CC1C2

$$$$

     RDKit          2D

  9  8  0  0  0  0  0  0  0  0999 V2000
    6.4952   -2.2500    0.0000 C   0  0  0  0  0  0  0  0  0  0  0  0
    5.1962   -1.5000    0.0000 O   0  0  0  0  0  0  0  0  0  0  0  0
    5.1962   -0.0000    0.0000 N   0  0  0  0  0  0  0  0  0  0  0  0
    3.8971    0.7500    0.0000 C   0  0  0  0  0  0  0  0  0  0  0  0
    2.5981   -0.0000    0.0000 C   0  0  0  0  0  0  0  0  0  0  0  0
    1.2990    0.7500    0.0000 C   0  0  0  0  0  0  0  0  0  0  0  0
    1.2990    2.2500    0.0000 O   0  0  0  0  0  0  0  0  0  0  0  0
    0.0000    0.0000    0.0000 R   0  0  0  0  0  1  0  0  0  2  0  0
    6.4952    0.7500    0.0000 R   0  0  0  0  0  1  0  0  0  1  0  0
  1  2  1  0
  2  3  1  0
  3  4  1  0
  4  5  1  0
  5  6  1  0
  6  7  2  0
  6  8  1  0
  3  9  1  0
M  END
>  <id>  (259) 
c174e225-7b21-4338-8cff-e13b0e0fe7fa

>  <Version>  (259) 
0

>  <Alias>  (259) 
NMeO-B-Ala

>  <Type>  (259) 
amino_acid

>  <Smiles>  (259) 
CON(CCC(=O)[*:2])[*:1]

>  <ProtectedSmiles>  (259) 
CON(CCC(=O)O)C(=O)OCC1c2ccccc2-c2ccccc21

>  <CAS>  (259) 
247021-90-5

>  <User>  (259) 
sevan.h

>  <StereoComment>  (259) 
as drawn

>  <Name>  (259) 
 3-((((9H-Fluoren-9-yl)methoxy)carbonyl)(methoxy)amino)propanoic acid

>  <Code>  (259) 
NMeO-B-Ala

>  <AliasLowerCase>  (259) 
nmeo-b-ala

>  <LatestVersion>  (259) 
0.0

>  <createdAt>  (259) 
2026-01-14T11:38:10.777Z

>  <updatedAt>  (259) 
2026-01-14T11:38:10.777Z

>  <NumRotatableBonds>  (259) 
4

>  <is_N_methyl>  (259) 
False

>  <is_a_methyl>  (259) 
False

>  <is_alpha_aa>  (259) 
False

>  <is_beta_aa>  (259) 
True

>  <is_S100_aa>  (259) 
False

>  <Murcko_SMILES>  (259) 


$$$$

     RDKit          2D

  7  6  0  0  0  0  0  0  0  0999 V2000
    5.1962   -1.5000    0.0000 O   0  0  0  0  0  0  0  0  0  0  0  0
    5.1962   -0.0000    0.0000 C   0  0  0  0  0  0  0  0  0  0  0  0
    3.8971    0.7500    0.0000 C   0  0  0  0  0  0  0  0  0  0  0  0
    2.5981   -0.0000    0.0000 C   0  0  0  0  0  0  0  0  0  0  0  0
    1.2990    0.7500    0.0000 N   0  0  0  0  0  0  0  0  0  0  0  0
    0.0000    0.0000    0.0000 R   0  0  0  0  0  1  0  0  0  1  0  0
    6.4952    0.7500    0.0000 R   0  0  0  0  0  1  0  0  0  2  0  0
  1  2  2  0
  2  3  1  0
  3  4  1  0
  4  5  1  0
  5  6  1  0
  2  7  1  0
M  END
>  <id>  (260) 
83ef7cac-faae-41ff-b9a1-a26c2f6dcc33

>  <Version>  (260) 
0

>  <Alias>  (260) 
B-Ala

>  <Type>  (260) 
amino_acid

>  <Smiles>  (260) 
O=C(CCN[*:1])[*:2]

>  <ProtectedSmiles>  (260) 
O=C(O)CCNC(=O)OCC1c2ccccc2-c2ccccc21

>  <CAS>  (260) 
35737-10-1

>  <User>  (260) 
sevan.h

>  <StereoComment>  (260) 
as drawn

>  <Name>  (260) 
Fmoc-beta-Ala-OH

>  <Code>  (260) 
B-Ala

>  <AliasLowerCase>  (260) 
b-ala

>  <LatestVersion>  (260) 
0.0

>  <createdAt>  (260) 
2026-01-14T12:17:06.922Z

>  <updatedAt>  (260) 
2026-01-14T12:17:06.922Z

>  <NumRotatableBonds>  (260) 
3

>  <is_N_methyl>  (260) 
False

>  <is_a_methyl>  (260) 
False

>  <is_alpha_aa>  (260) 
False

>  <is_beta_aa>  (260) 
True

>  <is_S100_aa>  (260) 
False

>  <Murcko_SMILES>  (260) 


$$$$

     RDKit          2D

 15 15  0  0  0  0  0  0  0  0999 V2000
    6.0000    0.0000    0.0000 O   0  0  0  0  0  0  0  0  0  0  0  0
    5.2500   -1.2990    0.0000 C   0  0  0  0  0  0  0  0  0  0  0  0
    3.7500   -1.2990    0.0000 C   0  0  0  0  0  0  0  0  0  0  0  0
    3.0000    0.0000    0.0000 C   0  0  0  0  0  0  0  0  0  0  0  0
    3.7500    1.2990    0.0000 N   0  0  0  0  0  0  0  0  0  0  0  0
    5.2500    1.2990    0.0000 R   0  0  0  0  0  1  0  0  0  1  0  0
    1.5000    0.0000    0.0000 C   0  0  0  0  0  0  0  0  0  0  0  0
    0.7500   -1.2990    0.0000 C   0  0  0  0  0  0  0  0  0  0  0  0
   -0.7500   -1.2990    0.0000 C   0  0  0  0  0  0  0  0  0  0  0  0
   -1.5000    0.0000    0.0000 C   0  0  0  0  0  0  0  0  0  0  0  0
   -3.0000    0.0000    0.0000 F   0  0  0  0  0  0  0  0  0  0  0  0
   -0.7500    1.2990    0.0000 C   0  0  0  0  0  0  0  0  0  0  0  0
    0.7500    1.2990    0.0000 C   0  0  0  0  0  0  0  0  0  0  0  0
    1.5000    2.5981    0.0000 F   0  0  0  0  0  0  0  0  0  0  0  0
    6.0000   -2.5981    0.0000 R   0  0  0  0  0  1  0  0  0  2  0  0
  1  2  2  0
  2  3  1  0
  4  3  1  1
  4  5  1  0
  5  6  1  0
  4  7  1  0
  7  8  2  0
  8  9  1  0
  9 10  2  0
 10 11  1  0
 10 12  1  0
 12 13  2  0
 13 14  1  0
  2 15  1  0
 13  7  1  0
M  END
>  <id>  (261) 
2274dfca-5381-4791-b627-e7b7fef62e38

>  <Version>  (261) 
0

>  <Alias>  (261) 
S-3-(2,4FPh)PA

>  <Type>  (261) 
amino_acid

>  <Smiles>  (261) 
O=C(C[C@H](N[*:1])c1ccc(F)cc1F)[*:2]

>  <ProtectedSmiles>  (261) 
O=C(O)C[C@H](NC(=O)OCC1c2ccccc2-c2ccccc21)c1ccc(F)cc1F

>  <CAS>  (261) 
1260601-06-6

>  <User>  (261) 
angelica.l

>  <StereoComment>  (261) 
as drawn

>  <Name>  (261) 
(3S)-3-(2,4-difluorophenyl)-3-({[(9H-fluoren-9-yl)methoxy]carbonyl}amino)propanoic acid

>  <Code>  (261) 
S-3-(2,4FPh)PA

>  <AliasLowerCase>  (261) 
s-3-(2,4fph)pa

>  <LatestVersion>  (261) 
0.0

>  <createdAt>  (261) 
2026-01-14T11:33:29.504Z

>  <updatedAt>  (261) 
2026-01-14T11:33:29.504Z

>  <NumRotatableBonds>  (261) 
4

>  <is_N_methyl>  (261) 
False

>  <is_a_methyl>  (261) 
False

>  <is_alpha_aa>  (261) 
False

>  <is_beta_aa>  (261) 
True

>  <is_S100_aa>  (261) 
False

>  <Murcko_SMILES>  (261) 
c1ccccc1

$$$$

     RDKit          2D

 14 14  0  0  0  0  0  0  0  0999 V2000
    5.2500   -3.8971    0.0000 O   0  0  0  0  0  0  0  0  0  0  0  0
    6.0000   -2.5981    0.0000 C   0  0  0  0  0  0  0  0  0  0  0  0
    5.2500   -1.2990    0.0000 C   0  0  0  0  0  0  0  0  0  0  0  0
    3.7500   -1.2990    0.0000 C   0  0  0  0  0  0  0  0  0  0  0  0
    3.0000    0.0000    0.0000 C   0  0  0  0  0  0  0  0  0  0  0  0
    1.5000    0.0000    0.0000 C   0  0  0  0  0  0  0  0  0  0  0  0
    0.7500   -1.2990    0.0000 C   0  0  0  0  0  0  0  0  0  0  0  0
   -0.7500   -1.2990    0.0000 C   0  0  0  0  0  0  0  0  0  0  0  0
   -1.5000    0.0000    0.0000 C   0  0  0  0  0  0  0  0  0  0  0  0
   -0.7500    1.2990    0.0000 C   0  0  0  0  0  0  0  0  0  0  0  0
    0.7500    1.2990    0.0000 C   0  0  0  0  0  0  0  0  0  0  0  0
    6.0000    0.0000    0.0000 N   0  0  0  0  0  0  0  0  0  0  0  0
    7.5000    0.0000    0.0000 R   0  0  0  0  0  1  0  0  0  1  0  0
    7.5000   -2.5981    0.0000 R   0  0  0  0  0  1  0  0  0  2  0  0
  1  2  2  0
  2  3  1  0
  3  4  1  6
  4  5  1  0
  5  6  1  0
  6  7  1  0
  7  8  1  0
  8  9  1  0
  9 10  1  0
 10 11  1  0
  3 12  1  0
 12 13  1  0
  2 14  1  0
 11  6  1  0
M  END
>  <id>  (262) 
42216f9c-e52c-4ead-b6ab-4cb2e6c07713

>  <Version>  (262) 
0

>  <Alias>  (262) 
hCha

>  <Type>  (262) 
amino_acid

>  <Smiles>  (262) 
O=C([C@H](CCC1CCCCC1)N[*:1])[*:2]

>  <ProtectedSmiles>  (262) 
O=C(N[C@@H](CCC1CCCCC1)C(=O)O)OCC1c2ccccc2-c2ccccc21

>  <CAS>  (262) 
269078-73-1

>  <User>  (262) 
mischa.s

>  <StereoComment>  (262) 
as drawn

>  <Name>  (262) 
Fmoc-L-Homocyclohexylalanine

>  <Code>  (262) 
hCha

>  <AliasLowerCase>  (262) 
hcha

>  <LatestVersion>  (262) 
0.0

>  <createdAt>  (262) 
2026-01-14T11:37:31.366Z

>  <updatedAt>  (262) 
2026-01-14T11:37:31.366Z

>  <NumRotatableBonds>  (262) 
5

>  <is_N_methyl>  (262) 
False

>  <is_a_methyl>  (262) 
False

>  <is_alpha_aa>  (262) 
True

>  <is_beta_aa>  (262) 
False

>  <is_S100_aa>  (262) 
False

>  <Murcko_SMILES>  (262) 
C1CCCCC1

$$$$

     RDKit          2D

 13 14  0  0  0  0  0  0  0  0999 V2000
    1.2990   -5.8573    0.0000 O   0  0  0  0  0  0  0  0  0  0  0  0
   -0.0000   -5.1073    0.0000 C   0  0  0  0  0  0  0  0  0  0  0  0
   -0.0000   -3.6073    0.0000 C   0  0  0  0  0  0  0  0  0  0  0  0
    1.2135   -2.7256    0.0000 C   0  0  0  0  0  0  0  0  0  0  0  0
    0.7500   -1.2990    0.0000 C   0  0  0  0  0  0  0  0  0  0  0  0
    1.5000    0.0000    0.0000 C   0  0  0  0  0  0  0  0  0  0  0  0
    0.7500    1.2990    0.0000 C   0  0  0  0  0  0  0  0  0  0  0  0
   -0.7500    1.2990    0.0000 C   0  0  0  0  0  0  0  0  0  0  0  0
   -1.5000    0.0000    0.0000 C   0  0  0  0  0  0  0  0  0  0  0  0
   -0.7500   -1.2990    0.0000 C   0  0  0  0  0  0  0  0  0  0  0  0
   -1.2135   -2.7256    0.0000 N   0  0  0  0  0  0  0  0  0  0  0  0
   -2.6401   -3.1891    0.0000 R   0  0  0  0  0  1  0  0  0  1  0  0
   -1.2990   -5.8573    0.0000 R   0  0  0  0  0  1  0  0  0  2  0  0
  1  2  2  0
  3  2  1  1
  3  4  1  0
  4  5  1  0
  5  6  1  0
  6  7  1  0
  7  8  1  0
  8  9  1  0
  9 10  1  0
 10 11  1  0
 11 12  1  0
  2 13  1  0
 11  3  1  0
 10  5  1  0
M  END
>  <id>  (263) 
94e95c8b-eafa-414d-8f50-717a3a1cd6e0

>  <Version>  (263) 
0

>  <Alias>  (263) 
(2S,rac)Oic

>  <Type>  (263) 
amino_acid

>  <Smiles>  (263) 
O=C([C@@H]1CC2CCCCC2N1[*:1])[*:2]

>  <ProtectedSmiles>  (263) 
O=C(O)[C@@H]1CC2CCCCC2N1C(=O)OCC1c2ccccc2-c2ccccc21

>  <CAS>  (263) 
214750-71-7

>  <User>  (263) 
mischa.s

>  <StereoComment>  (263) 
as drawn

>  <Name>  (263) 
(2S)-1-(((9H-Fluoren-9-yl)methoxy)carbonyl)octahydro-1Hindole-2-carboxylic acid

>  <Code>  (263) 
(2S,rac)Oic

>  <AliasLowerCase>  (263) 
(2s,rac)oic

>  <LatestVersion>  (263) 
0.0

>  <createdAt>  (263) 
2026-01-14T11:37:24.823Z

>  <updatedAt>  (263) 
2026-01-14T11:37:24.823Z

>  <NumRotatableBonds>  (263) 
1

>  <is_N_methyl>  (263) 
False

>  <is_a_methyl>  (263) 
False

>  <is_alpha_aa>  (263) 
True

>  <is_beta_aa>  (263) 
False

>  <is_S100_aa>  (263) 
False

>  <Murcko_SMILES>  (263) 
C1CCC2NCCC2C1

$$$$

     RDKit          2D

 14 15  0  0  0  0  0  0  0  0999 V2000
    2.4709   -4.4102    0.0000 O   0  0  0  0  0  0  0  0  0  0  0  0
    1.0037   -4.7220    0.0000 C   0  0  0  0  0  0  0  0  0  0  0  0
   -0.0000   -3.6073    0.0000 C   0  0  0  0  0  0  0  0  0  0  0  0
   -1.0037   -4.7220    0.0000 N   0  0  0  0  0  0  0  0  0  0  0  0
   -2.4709   -4.4102    0.0000 R   0  0  0  0  0  1  0  0  0  1  0  0
    1.2135   -2.7256    0.0000 C   0  0  0  0  0  0  0  0  0  0  0  0
    0.7500   -1.2990    0.0000 C   0  0  0  0  0  0  0  0  0  0  0  0
    1.5000    0.0000    0.0000 C   0  0  0  0  0  0  0  0  0  0  0  0
    0.7500    1.2990    0.0000 C   0  0  0  0  0  0  0  0  0  0  0  0
   -0.7500    1.2990    0.0000 C   0  0  0  0  0  0  0  0  0  0  0  0
   -1.5000    0.0000    0.0000 C   0  0  0  0  0  0  0  0  0  0  0  0
   -0.7500   -1.2990    0.0000 C   0  0  0  0  0  0  0  0  0  0  0  0
   -1.2135   -2.7256    0.0000 C   0  0  0  0  0  0  0  0  0  0  0  0
    0.5402   -6.1486    0.0000 R   0  0  0  0  0  1  0  0  0  2  0  0
  1  2  2  0
  2  3  1  0
  3  4  1  0
  4  5  1  0
  3  6  1  0
  6  7  1  0
  7  8  2  0
  8  9  1  0
  9 10  2  0
 10 11  1  0
 11 12  2  0
 12 13  1  0
  2 14  1  0
 13  3  1  0
 12  7  1  0
M  END
>  <id>  (264) 
3bb8ae21-e333-420d-8bc9-46893b74bf6d

>  <Version>  (264) 
0

>  <Alias>  (264) 
2-Ind

>  <Type>  (264) 
amino_acid

>  <Smiles>  (264) 
O=C(C1(N[*:1])Cc2ccccc2C1)[*:2]

>  <ProtectedSmiles>  (264) 
O=C(NC1(C(=O)O)Cc2ccccc2C1)OCC1c2ccccc2-c2ccccc21

>  <CAS>  (264) 
135944-07-9

>  <User>  (264) 
sevan.h

>  <StereoComment>  (264) 
as drawn

>  <Name>  (264) 
 Fmoc-2-amino-2-indancarboxylic acid

>  <Code>  (264) 
2-Ind

>  <AliasLowerCase>  (264) 
2-ind

>  <LatestVersion>  (264) 
0.0

>  <createdAt>  (264) 
2026-01-14T11:38:11.442Z

>  <updatedAt>  (264) 
2026-01-14T11:38:11.442Z

>  <NumRotatableBonds>  (264) 
2

>  <is_N_methyl>  (264) 
False

>  <is_a_methyl>  (264) 
False

>  <is_alpha_aa>  (264) 
True

>  <is_beta_aa>  (264) 
False

>  <is_S100_aa>  (264) 
False

>  <Murcko_SMILES>  (264) 
c1ccc2c(c1)CCC2

$$$$

     RDKit          2D

 13 13  0  0  0  0  0  0  0  0999 V2000
    3.0000   -2.5981    0.0000 O   0  0  0  0  0  0  0  0  0  0  0  0
    3.7500   -1.2990    0.0000 C   0  0  0  0  0  0  0  0  0  0  0  0
    3.0000    0.0000    0.0000 C   0  0  0  0  0  0  0  0  0  0  0  0
    3.7500    1.2990    0.0000 N   0  0  0  0  0  0  0  0  0  0  0  0
    5.2500    1.2990    0.0000 R   0  0  0  0  0  1  0  0  0  1  0  0
    1.5000    0.0000    0.0000 C   0  0  0  0  0  0  0  0  0  0  0  0
    0.7500   -1.2990    0.0000 C   0  0  0  0  0  0  0  0  0  0  0  0
   -0.7500   -1.2990    0.0000 C   0  0  0  0  0  0  0  0  0  0  0  0
   -1.5000    0.0000    0.0000 C   0  0  0  0  0  0  0  0  0  0  0  0
   -0.7500    1.2990    0.0000 C   0  0  0  0  0  0  0  0  0  0  0  0
   -1.5000    2.5981    0.0000 F   0  0  0  0  0  0  0  0  0  0  0  0
    0.7500    1.2990    0.0000 C   0  0  0  0  0  0  0  0  0  0  0  0
    5.2500   -1.2990    0.0000 R   0  0  0  0  0  1  0  0  0  2  0  0
  1  2  2  0
  2  3  1  0
  3  4  1  6
  4  5  1  0
  3  6  1  0
  6  7  2  0
  7  8  1  0
  8  9  2  0
  9 10  1  0
 10 11  1  0
 10 12  2  0
  2 13  1  0
 12  6  1  0
M  END
>  <id>  (265) 
0dfb8198-914a-4c02-94c7-34034549d95a

>  <Version>  (265) 
0

>  <Alias>  (265) 
(S)-2FPhg

>  <Type>  (265) 
amino_acid

>  <Smiles>  (265) 
O=C([C@@H](N[*:1])c1cccc(F)c1)[*:2]

>  <ProtectedSmiles>  (265) 
O=C(N[C@H](C(=O)O)c1cccc(F)c1)OCC1c2ccccc2-c2ccccc21

>  <CAS>  (265) 
1050484-99-5

>  <User>  (265) 
angelica.l

>  <StereoComment>  (265) 
as drawn

>  <Name>  (265) 
(2S)-2-({[(9H-fluoren-9-yl)methoxy]carbonyl}amino)-2-(3-fluorophenyl)acetic acid

>  <Code>  (265) 
(S)-2FPhg

>  <AliasLowerCase>  (265) 
(s)-2fphg

>  <LatestVersion>  (265) 
0.0

>  <createdAt>  (265) 
2026-01-14T11:36:07.519Z

>  <updatedAt>  (265) 
2026-01-14T11:36:07.519Z

>  <NumRotatableBonds>  (265) 
3

>  <is_N_methyl>  (265) 
False

>  <is_a_methyl>  (265) 
False

>  <is_alpha_aa>  (265) 
True

>  <is_beta_aa>  (265) 
False

>  <is_S100_aa>  (265) 
False

>  <Murcko_SMILES>  (265) 
c1ccccc1

$$$$

     RDKit          2D

 15 16  0  0  0  0  0  0  0  0999 V2000
   -1.5810   -3.1655    0.0000 O   0  0  0  0  0  0  0  0  0  0  0  0
   -0.5773   -4.2803    0.0000 C   0  0  0  0  0  0  0  0  0  0  0  0
    0.8899   -3.9684    0.0000 C   0  0  0  0  0  0  0  0  0  0  0  0
    2.0046   -4.9721    0.0000 C   0  0  0  0  0  0  0  0  0  0  0  0
    3.3037   -4.2221    0.0000 C   0  0  0  0  0  0  0  0  0  0  0  0
    2.9918   -2.7549    0.0000 N   0  0  0  0  0  0  0  0  0  0  0  0
    3.9955   -1.6402    0.0000 R   0  0  0  0  0  1  0  0  0  1  0  0
    1.5000   -2.5981    0.0000 C   0  0  0  0  0  0  0  0  0  0  0  0
    0.7500   -1.2990    0.0000 C   0  0  0  0  0  0  0  0  0  0  0  0
    1.5000    0.0000    0.0000 C   0  0  0  0  0  0  0  0  0  0  0  0
    0.7500    1.2990    0.0000 C   0  0  0  0  0  0  0  0  0  0  0  0
   -0.7500    1.2990    0.0000 C   0  0  0  0  0  0  0  0  0  0  0  0
   -1.5000    0.0000    0.0000 C   0  0  0  0  0  0  0  0  0  0  0  0
   -0.7500   -1.2990    0.0000 C   0  0  0  0  0  0  0  0  0  0  0  0
   -1.0409   -5.7068    0.0000 R   0  0  0  0  0  1  0  0  0  2  0  0
  1  2  2  0
  3  2  1  1
  3  4  1  0
  4  5  1  0
  5  6  1  0
  6  7  1  0
  6  8  1  0
  8  9  1  1
  9 10  2  0
 10 11  1  0
 11 12  2  0
 12 13  1  0
 13 14  2  0
  2 15  1  0
  8  3  1  0
 14  9  1  0
M  END
>  <id>  (266) 
a31ac343-d9a3-4d6d-8564-904a249da6de

>  <Version>  (266) 
0

>  <Alias>  (266) 
2Ph-3SisoPro

>  <Type>  (266) 
amino_acid

>  <Smiles>  (266) 
O=C([C@@H]1CCN([*:1])[C@@H]1c1ccccc1)[*:2]

>  <ProtectedSmiles>  (266) 
O=C(O)[C@@H]1CCN(C(=O)OCC2c3ccccc3-c3ccccc32)[C@@H]1c1ccccc1

>  <CAS>  (266) 
2227775-85-9

>  <User>  (266) 
marie.g

>  <StereoComment>  (266) 
as drawn

>  <Name>  (266) 
(2S,3R)-1-(((9H-Fluoren-9-yl)methoxy)carbonyl)-2-phenylpyrrolidine-3-carboxylic acid

>  <Code>  (266) 
2Ph-3SisoPro

>  <AliasLowerCase>  (266) 
2ph-3sisopro

>  <LatestVersion>  (266) 
0.0

>  <createdAt>  (266) 
2026-01-14T11:33:43.172Z

>  <updatedAt>  (266) 
2026-01-14T11:33:43.172Z

>  <NumRotatableBonds>  (266) 
2

>  <is_N_methyl>  (266) 
False

>  <is_a_methyl>  (266) 
False

>  <is_alpha_aa>  (266) 
False

>  <is_beta_aa>  (266) 
True

>  <is_S100_aa>  (266) 
False

>  <Murcko_SMILES>  (266) 
c1ccc([C@@H]2CCCN2)cc1

$$$$

     RDKit          2D

 10 10  0  0  0  0  0  0  0  0999 V2000
    3.5260    1.2990    0.0000 O   0  0  0  0  0  0  0  0  0  0  0  0
    2.7760    0.0000    0.0000 C   0  0  0  0  0  0  0  0  0  0  0  0
    1.2760    0.0000    0.0000 C   0  0  0  0  0  0  0  0  0  0  0  0
    0.3943    1.2135    0.0000 C   0  0  0  0  0  0  0  0  0  0  0  0
   -1.0323    0.7500    0.0000 C   0  0  0  0  0  0  0  0  0  0  0  0
   -2.2458    1.6317    0.0000 F   0  0  0  0  0  0  0  0  0  0  0  0
   -1.0323   -0.7500    0.0000 C   0  0  0  0  0  0  0  0  0  0  0  0
    0.3943   -1.2135    0.0000 N   0  0  0  0  0  0  0  0  0  0  0  0
    0.8578   -2.6401    0.0000 R   0  0  0  0  0  1  0  0  0  1  0  0
    3.5260   -1.2990    0.0000 R   0  0  0  0  0  1  0  0  0  2  0  0
  1  2  2  0
  3  2  1  1
  3  4  1  0
  4  5  1  0
  5  6  1  6
  5  7  1  0
  7  8  1  0
  8  9  1  0
  2 10  1  0
  8  3  1  0
M  END
>  <id>  (267) 
fd4b2ce8-7d3b-410e-a5b7-cb6e4646b79a

>  <Version>  (267) 
0

>  <Alias>  (267) 
Pro(4R-F)

>  <Type>  (267) 
amino_acid

>  <Smiles>  (267) 
O=C([C@@H]1C[C@@H](F)CN1[*:1])[*:2]

>  <ProtectedSmiles>  (267) 
O=C(O)[C@@H]1C[C@@H](F)CN1C(=O)OCC1c2ccccc2-c2ccccc21

>  <CAS>  (267) 
203866-20-0

>  <User>  (267) 
mischa.s

>  <StereoComment>  (267) 
as drawn

>  <Name>  (267) 
(2S,4R)-Fmoc-4-fluoro-pyrrolidine-2-carboxylic acid

>  <Code>  (267) 
Pro(4R-F)

>  <AliasLowerCase>  (267) 
pro(4r-f)

>  <LatestVersion>  (267) 
0.0

>  <createdAt>  (267) 
2026-01-14T11:36:31.286Z

>  <updatedAt>  (267) 
2026-01-14T11:36:31.286Z

>  <NumRotatableBonds>  (267) 
1

>  <is_N_methyl>  (267) 
False

>  <is_a_methyl>  (267) 
False

>  <is_alpha_aa>  (267) 
True

>  <is_beta_aa>  (267) 
False

>  <is_S100_aa>  (267) 
False

>  <Murcko_SMILES>  (267) 
C1CCNC1

$$$$

     RDKit          2D

 15 15  0  0  0  0  0  0  0  0999 V2000
    8.2500   -1.2990    0.0000 O   0  0  0  0  0  0  0  0  0  0  0  0
    7.5000   -2.5981    0.0000 C   0  0  0  0  0  0  0  0  0  0  0  0
    6.0000   -2.5981    0.0000 C   0  0  0  0  0  0  0  0  0  0  0  0
    5.2500   -1.2990    0.0000 C   0  0  0  0  0  0  0  0  0  0  0  0
    3.7500   -1.2990    0.0000 C   0  0  0  0  0  0  0  0  0  0  0  0
    3.0000    0.0000    0.0000 C   0  0  0  0  0  0  0  0  0  0  0  0
    1.5000    0.0000    0.0000 C   0  0  0  0  0  0  0  0  0  0  0  0
    0.7500   -1.2990    0.0000 C   0  0  0  0  0  0  0  0  0  0  0  0
   -0.7500   -1.2990    0.0000 C   0  0  0  0  0  0  0  0  0  0  0  0
   -1.5000    0.0000    0.0000 C   0  0  0  0  0  0  0  0  0  0  0  0
   -0.7500    1.2990    0.0000 C   0  0  0  0  0  0  0  0  0  0  0  0
    0.7500    1.2990    0.0000 C   0  0  0  0  0  0  0  0  0  0  0  0
    6.0000    0.0000    0.0000 N   0  0  0  0  0  0  0  0  0  0  0  0
    7.5000    0.0000    0.0000 R   0  0  0  0  0  1  0  0  0  1  0  0
    8.2500   -3.8971    0.0000 R   0  0  0  0  0  1  0  0  0  2  0  0
  1  2  2  0
  2  3  1  0
  4  3  1  6
  4  5  1  0
  5  6  1  0
  6  7  1  0
  7  8  2  0
  8  9  1  0
  9 10  2  0
 10 11  1  0
 11 12  2  0
  4 13  1  0
 13 14  1  0
  2 15  1  0
 12  7  1  0
M  END
>  <id>  (268) 
15ebdd30-79dd-4a8f-8d1d-52f55b84d902

>  <Version>  (268) 
0

>  <Alias>  (268) 
(3S)-5PhPA

>  <Type>  (268) 
amino_acid

>  <Smiles>  (268) 
O=C(C[C@H](CCc1ccccc1)N[*:1])[*:2]

>  <ProtectedSmiles>  (268) 
O=C(O)C[C@H](CCc1ccccc1)NC(=O)OCC1c2ccccc2-c2ccccc21

>  <CAS>  (268) 
219967-74-5

>  <User>  (268) 
mischa.s

>  <StereoComment>  (268) 
as drawn

>  <Name>  (268) 
(3S)-3-({[(9H-fluoren-9-yl)methoxy]carbonyl}amino)-5-phenylpentanoic acid

>  <Code>  (268) 
(3S)-5PhPA

>  <AliasLowerCase>  (268) 
(3s)-5phpa

>  <LatestVersion>  (268) 
0.0

>  <createdAt>  (268) 
2026-01-14T11:33:08.555Z

>  <updatedAt>  (268) 
2026-01-14T11:33:08.555Z

>  <NumRotatableBonds>  (268) 
6

>  <is_N_methyl>  (268) 
False

>  <is_a_methyl>  (268) 
False

>  <is_alpha_aa>  (268) 
False

>  <is_beta_aa>  (268) 
True

>  <is_S100_aa>  (268) 
False

>  <Murcko_SMILES>  (268) 
c1ccccc1

$$$$

     RDKit          2D

 14 14  0  0  0  0  0  0  0  0999 V2000
    6.0000    0.0000    0.0000 O   0  0  0  0  0  0  0  0  0  0  0  0
    5.2500   -1.2990    0.0000 C   0  0  0  0  0  0  0  0  0  0  0  0
    3.7500   -1.2990    0.0000 C   0  0  0  0  0  0  0  0  0  0  0  0
    3.0000    0.0000    0.0000 C   0  0  0  0  0  0  0  0  0  0  0  0
    1.5000    0.0000    0.0000 C   0  0  0  0  0  0  0  0  0  0  0  0
    0.7500   -1.2990    0.0000 C   0  0  0  0  0  0  0  0  0  0  0  0
   -0.7500   -1.2990    0.0000 C   0  0  0  0  0  0  0  0  0  0  0  0
   -1.5000    0.0000    0.0000 C   0  0  0  0  0  0  0  0  0  0  0  0
   -0.7500    1.2990    0.0000 C   0  0  0  0  0  0  0  0  0  0  0  0
   -1.5000    2.5981    0.0000 Cl  0  0  0  0  0  0  0  0  0  0  0  0
    0.7500    1.2990    0.0000 C   0  0  0  0  0  0  0  0  0  0  0  0
    3.0000   -2.5981    0.0000 N   0  0  0  0  0  0  0  0  0  0  0  0
    3.7500   -3.8971    0.0000 R   0  0  0  0  0  1  0  0  0  1  0  0
    6.0000   -2.5981    0.0000 R   0  0  0  0  0  1  0  0  0  2  0  0
  1  2  2  0
  2  3  1  0
  3  4  1  1
  4  5  1  0
  5  6  2  0
  6  7  1  0
  7  8  2  0
  8  9  1  0
  9 10  1  0
  9 11  2  0
  3 12  1  0
 12 13  1  0
  2 14  1  0
 11  5  1  0
M  END
>  <id>  (269) 
138907f2-bced-40d8-a337-f915e4dbbe7f

>  <Version>  (269) 
0

>  <Alias>  (269) 
3ClPhe

>  <Type>  (269) 
amino_acid

>  <Smiles>  (269) 
O=C([C@H](Cc1cccc(Cl)c1)N[*:1])[*:2]

>  <ProtectedSmiles>  (269) 
O=C(N[C@@H](Cc1cccc(Cl)c1)C(=O)O)OCC1c2ccccc2-c2ccccc21

>  <CAS>  (269) 
198560-44-0

>  <User>  (269) 
sevan.h

>  <StereoComment>  (269) 
as drawn

>  <Name>  (269) 
Fmoc-3-chloro-L-phenylalanine

>  <Code>  (269) 
3ClPhe

>  <AliasLowerCase>  (269) 
3clphe

>  <LatestVersion>  (269) 
0.0

>  <createdAt>  (269) 
2026-01-14T12:16:41.730Z

>  <updatedAt>  (269) 
2026-01-14T12:16:41.730Z

>  <NumRotatableBonds>  (269) 
4

>  <is_N_methyl>  (269) 
False

>  <is_a_methyl>  (269) 
False

>  <is_alpha_aa>  (269) 
True

>  <is_beta_aa>  (269) 
False

>  <is_S100_aa>  (269) 
False

>  <Murcko_SMILES>  (269) 
c1ccccc1

$$$$

     RDKit          2D

 15 15  0  0  0  0  0  0  0  0999 V2000
    5.2500   -3.8971    0.0000 O   0  0  0  0  0  0  0  0  0  0  0  0
    6.0000   -2.5981    0.0000 C   0  0  0  0  0  0  0  0  0  0  0  0
    5.2500   -1.2990    0.0000 C   0  0  0  0  0  0  0  0  0  0  0  0
    3.7500   -1.2990    0.0000 C   0  0  0  0  0  0  0  0  0  0  0  0
    3.0000   -2.5981    0.0000 C   0  0  0  0  0  0  0  0  0  0  0  0
    3.7500   -3.8971    0.0000 N   0  0  0  0  0  0  0  0  0  0  0  0
    3.0000   -5.1962    0.0000 R   0  0  0  0  0  1  0  0  0  1  0  0
    3.0000    0.0000    0.0000 C   0  0  0  0  0  0  0  0  0  0  0  0
    1.5000    0.0000    0.0000 C   0  0  0  0  0  0  0  0  0  0  0  0
    0.7500   -1.2990    0.0000 C   0  0  0  0  0  0  0  0  0  0  0  0
   -0.7500   -1.2990    0.0000 C   0  0  0  0  0  0  0  0  0  0  0  0
   -1.5000    0.0000    0.0000 C   0  0  0  0  0  0  0  0  0  0  0  0
   -0.7500    1.2990    0.0000 C   0  0  0  0  0  0  0  0  0  0  0  0
    0.7500    1.2990    0.0000 C   0  0  0  0  0  0  0  0  0  0  0  0
    7.5000   -2.5981    0.0000 R   0  0  0  0  0  1  0  0  0  2  0  0
  1  2  2  0
  2  3  1  0
  3  4  1  0
  4  5  1  0
  5  6  1  0
  6  7  1  0
  4  8  1  0
  8  9  1  0
  9 10  2  0
 10 11  1  0
 11 12  2  0
 12 13  1  0
 13 14  2  0
  2 15  1  0
 14  9  1  0
M  END
>  <id>  (270) 
ad1f929d-b5d7-4947-83b7-3ac6491c0100

>  <Version>  (270) 
0

>  <Alias>  (270) 
4PheButOH

>  <Type>  (270) 
amino_acid

>  <Smiles>  (270) 
O=C(CC(CN[*:1])Cc1ccccc1)[*:2]

>  <ProtectedSmiles>  (270) 
O=C(O)CC(CNC(=O)OCC1c2ccccc2-c2ccccc21)Cc1ccccc1

>  <CAS>  (270) 
282525-01-3

>  <User>  (270) 
gontran.s

>  <StereoComment>  (270) 
as drawn

>  <Name>  (270) 
3-[({[(9H-fluoren-9-yl)methoxy]carbonyl}amino)methyl]-4-phenylbutanoic acid

>  <Code>  (270) 
4PheButOH

>  <AliasLowerCase>  (270) 
4phebutoh

>  <LatestVersion>  (270) 
0.0

>  <createdAt>  (270) 
2026-01-14T11:38:36.277Z

>  <updatedAt>  (270) 
2026-01-14T11:38:36.277Z

>  <NumRotatableBonds>  (270) 
6

>  <is_N_methyl>  (270) 
False

>  <is_a_methyl>  (270) 
False

>  <is_alpha_aa>  (270) 
False

>  <is_beta_aa>  (270) 
False

>  <is_S100_aa>  (270) 
False

>  <Murcko_SMILES>  (270) 
c1ccccc1

$$$$

     RDKit          2D

 12 12  0  0  0  0  0  0  0  0999 V2000
    5.7760    0.0000    0.0000 O   0  0  0  0  0  0  0  0  0  0  0  0
    5.0260   -1.2990    0.0000 C   0  0  0  0  0  0  0  0  0  0  0  0
    3.5260   -1.2990    0.0000 C   0  0  0  0  0  0  0  0  0  0  0  0
    2.7760    0.0000    0.0000 C   0  0  0  0  0  0  0  0  0  0  0  0
    1.2760    0.0000    0.0000 N   0  0  0  0  0  0  0  0  0  0  0  0
    0.3943    1.2135    0.0000 C   0  0  0  0  0  0  0  0  0  0  0  0
   -1.0323    0.7500    0.0000 C   0  0  0  0  0  0  0  0  0  0  0  0
   -1.0323   -0.7500    0.0000 N   0  0  0  0  0  0  0  0  0  0  0  0
    0.3943   -1.2135    0.0000 C   0  0  0  0  0  0  0  0  0  0  0  0
    2.7760   -2.5981    0.0000 N   0  0  0  0  0  0  0  0  0  0  0  0
    3.5260   -3.8971    0.0000 R   0  0  0  0  0  1  0  0  0  1  0  0
    5.7760   -2.5981    0.0000 R   0  0  0  0  0  1  0  0  0  2  0  0
  1  2  2  0
  2  3  1  0
  3  4  1  0
  4  5  1  0
  5  6  1  0
  6  7  2  0
  7  8  1  0
  8  9  2  0
  3 10  1  0
 10 11  1  0
  2 12  1  0
  9  5  1  0
M  END
>  <id>  (271) 
5650263a-cf55-4a15-9784-8e6265201cd5

>  <Version>  (271) 
0

>  <Alias>  (271) 
rac-(1-Imdzl)-Ala

>  <Type>  (271) 
amino_acid

>  <Smiles>  (271) 
O=C(C(Cn1ccnc1)N[*:1])[*:2]

>  <ProtectedSmiles>  (271) 
O=C(NC(Cn1ccnc1)C(=O)O)OCC1c2ccccc2-c2ccccc21

>  <CAS>  (271) 
1822485-60-8

>  <User>  (271) 
Sevan.habeshian@orbismedicines.com

>  <StereoComment>  (271) 
as drawn

>  <Name>  (271) 
N/A

>  <Code>  (271) 
rac-(1-Imdzl)-Ala

>  <AliasLowerCase>  (271) 
rac-(1-imdzl)-ala

>  <LatestVersion>  (271) 
0.0

>  <createdAt>  (271) 
2026-02-13T09:56:35.394Z

>  <updatedAt>  (271) 
2026-02-13T09:56:35.394Z

>  <NumRotatableBonds>  (271) 
4

>  <is_N_methyl>  (271) 
False

>  <is_a_methyl>  (271) 
False

>  <is_alpha_aa>  (271) 
True

>  <is_beta_aa>  (271) 
False

>  <is_S100_aa>  (271) 
False

>  <Murcko_SMILES>  (271) 
c1c[nH]cn1

$$$$

     RDKit          2D

 14 14  0  0  0  0  0  0  0  0999 V2000
    6.0000    0.0000    0.0000 O   0  0  0  0  0  0  0  0  0  0  0  0
    5.2500   -1.2990    0.0000 C   0  0  0  0  0  0  0  0  0  0  0  0
    3.7500   -1.2990    0.0000 C   0  0  0  0  0  0  0  0  0  0  0  0
    3.0000    0.0000    0.0000 C   0  0  0  0  0  0  0  0  0  0  0  0
    1.5000    0.0000    0.0000 C   0  0  0  0  0  0  0  0  0  0  0  0
    0.7500   -1.2990    0.0000 C   0  0  0  0  0  0  0  0  0  0  0  0
   -0.7500   -1.2990    0.0000 C   0  0  0  0  0  0  0  0  0  0  0  0
   -1.5000    0.0000    0.0000 C   0  0  0  0  0  0  0  0  0  0  0  0
   -3.0000    0.0000    0.0000 O   0  0  0  0  0  0  0  0  0  0  0  0
   -0.7500    1.2990    0.0000 C   0  0  0  0  0  0  0  0  0  0  0  0
    0.7500    1.2990    0.0000 C   0  0  0  0  0  0  0  0  0  0  0  0
    3.0000   -2.5981    0.0000 N   0  0  0  0  0  0  0  0  0  0  0  0
    3.7500   -3.8971    0.0000 R   0  0  0  0  0  1  0  0  0  1  0  0
    6.0000   -2.5981    0.0000 R   0  0  0  0  0  1  0  0  0  2  0  0
  1  2  2  0
  2  3  1  0
  3  4  1  1
  4  5  1  0
  5  6  2  0
  6  7  1  0
  7  8  2  0
  8  9  1  0
  8 10  1  0
 10 11  2  0
  3 12  1  0
 12 13  1  0
  2 14  1  0
 11  5  1  0
M  END
>  <id>  (272) 
7bdbb085-894b-4d63-bea6-a203030aeb57

>  <Version>  (272) 
0

>  <Alias>  (272) 
TyrBoc

>  <Type>  (272) 
amino_acid

>  <Smiles>  (272) 
O=C([C@H](Cc1ccc(O)cc1)N[*:1])[*:2]

>  <ProtectedSmiles>  (272) 
CC(C)(C)Oc1ccc(C[C@H](NC(=O)OCC2c3ccccc3-c3ccccc32)C(=O)O)cc1

>  <CAS>  (272) 
71989-38-3

>  <User>  (272) 
sevan.h

>  <StereoComment>  (272) 
as drawn

>  <Name>  (272) 
Fmoc-Tyr(tBu)-OH

>  <Code>  (272) 
TyrBoc

>  <AliasLowerCase>  (272) 
tyrboc

>  <LatestVersion>  (272) 
0.0

>  <createdAt>  (272) 
2026-01-14T12:17:22.166Z

>  <updatedAt>  (272) 
2026-01-14T12:17:22.166Z

>  <NumRotatableBonds>  (272) 
4

>  <is_N_methyl>  (272) 
False

>  <is_a_methyl>  (272) 
False

>  <is_alpha_aa>  (272) 
True

>  <is_beta_aa>  (272) 
False

>  <is_S100_aa>  (272) 
False

>  <Murcko_SMILES>  (272) 
c1ccccc1

$$$$

     RDKit          2D

 15 16  0  0  0  0  0  0  0  0999 V2000
    3.0613   -7.3456    0.0000 O   0  0  0  0  0  0  0  0  0  0  0  0
    1.8478   -6.4639    0.0000 C   0  0  0  0  0  0  0  0  0  0  0  0
    2.0046   -4.9721    0.0000 C   0  0  0  0  0  0  0  0  0  0  0  0
    3.3037   -4.2221    0.0000 C   0  0  0  0  0  0  0  0  0  0  0  0
    2.9918   -2.7549    0.0000 N   0  0  0  0  0  0  0  0  0  0  0  0
    1.5000   -2.5981    0.0000 C   0  0  0  0  0  0  0  0  0  0  0  0
    0.7500   -1.2990    0.0000 C   0  0  0  0  0  0  0  0  0  0  0  0
    1.5000    0.0000    0.0000 C   0  0  0  0  0  0  0  0  0  0  0  0
    0.7500    1.2990    0.0000 C   0  0  0  0  0  0  0  0  0  0  0  0
   -0.7500    1.2990    0.0000 C   0  0  0  0  0  0  0  0  0  0  0  0
   -1.5000    0.0000    0.0000 N   0  0  0  0  0  0  0  0  0  0  0  0
   -3.0000    0.0000    0.0000 R   0  0  0  0  0  1  0  0  0  1  0  0
   -0.7500   -1.2990    0.0000 C   0  0  0  0  0  0  0  0  0  0  0  0
    0.8899   -3.9684    0.0000 S   0  0  0  0  0  0  0  0  0  0  0  0
    0.4775   -7.0740    0.0000 R   0  0  0  0  0  1  0  0  0  2  0  0
  1  2  2  0
  2  3  1  0
  3  4  2  0
  4  5  1  0
  5  6  2  0
  6  7  1  0
  7  8  1  0
  8  9  1  0
  9 10  1  0
 10 11  1  0
 11 12  1  0
 11 13  1  0
  6 14  1  0
  2 15  1  0
 14  3  1  0
 13  7  1  0
M  END
>  <id>  (273) 
51360514-4f05-4eb2-be76-3fa7348b91f4

>  <Version>  (273) 
0

>  <Alias>  (273) 
3PipThz

>  <Type>  (273) 
amino_acid

>  <Smiles>  (273) 
O=C(c1cnc(C2CCCN([*:1])C2)s1)[*:2]

>  <ProtectedSmiles>  (273) 
O=C(O)c1cnc(C2CCCN(C(=O)OCC3c4ccccc4-c4ccccc43)C2)s1

>  <CAS>  (273) 
2137672-29-6

>  <User>  (273) 
gontran.s

>  <StereoComment>  (273) 
as drawn

>  <Name>  (273) 
2-(1-{[(9H-fluoren-9-yl)methoxy]carbonyl}piperidin-3-yl)-1,3-thiazole-5-carboxylic acid

>  <Code>  (273) 
3PipThz

>  <AliasLowerCase>  (273) 
3pipthz

>  <LatestVersion>  (273) 
0.0

>  <createdAt>  (273) 
2026-01-14T11:38:36.938Z

>  <updatedAt>  (273) 
2026-01-14T11:38:36.938Z

>  <NumRotatableBonds>  (273) 
2

>  <is_N_methyl>  (273) 
False

>  <is_a_methyl>  (273) 
False

>  <is_alpha_aa>  (273) 
False

>  <is_beta_aa>  (273) 
False

>  <is_S100_aa>  (273) 
False

>  <Murcko_SMILES>  (273) 
c1csc(C2CCCNC2)n1

$$$$

     RDKit          2D

 10 10  0  0  0  0  0  0  0  0999 V2000
    3.5260   -1.2990    0.0000 O   0  0  0  0  0  0  0  0  0  0  0  0
    2.7760    0.0000    0.0000 C   0  0  0  0  0  0  0  0  0  0  0  0
    1.2760    0.0000    0.0000 C   0  0  0  0  0  0  0  0  0  0  0  0
    0.3943    1.2135    0.0000 O   0  0  0  0  0  0  0  0  0  0  0  0
   -1.0323    0.7500    0.0000 C   0  0  0  0  0  0  0  0  0  0  0  0
   -1.0323   -0.7500    0.0000 C   0  0  0  0  0  0  0  0  0  0  0  0
    0.3943   -1.2135    0.0000 C   0  0  0  0  0  0  0  0  0  0  0  0
    0.8578   -2.6401    0.0000 N   0  0  0  0  0  0  0  0  0  0  0  0
   -0.1459   -3.7548    0.0000 R   0  0  0  0  0  1  0  0  0  1  0  0
    3.5260    1.2990    0.0000 R   0  0  0  0  0  1  0  0  0  2  0  0
  1  2  2  0
  3  2  1  1
  3  4  1  0
  4  5  1  0
  5  6  1  0
  6  7  1  0
  7  8  1  1
  8  9  1  0
  2 10  1  0
  7  3  1  0
M  END
>  <id>  (274) 
7995c20f-e02a-43f7-8c5d-6ef84812621d

>  <Version>  (274) 
0

>  <Alias>  (274) 
(2R,3S)OxolACCA

>  <Type>  (274) 
amino_acid

>  <Smiles>  (274) 
O=C([C@@H]1OCC[C@@H]1N[*:1])[*:2]

>  <ProtectedSmiles>  (274) 
O=C(N[C@H]1CCO[C@H]1C(=O)O)OCC1c2ccccc2-c2ccccc21

>  <CAS>  (274) 
2138266-64-3

>  <User>  (274) 
Sevan.habeshian@orbismedicines.com

>  <StereoComment>  (274) 
rac-cis

>  <Name>  (274) 
N/A

>  <Code>  (274) 
(2R,3S)OxolACCA

>  <AliasLowerCase>  (274) 
(2r,3s)oxolacca

>  <LatestVersion>  (274) 
0.0

>  <createdAt>  (274) 
2026-02-13T09:56:35.509Z

>  <updatedAt>  (274) 
2026-02-13T09:56:35.509Z

>  <NumRotatableBonds>  (274) 
2

>  <is_N_methyl>  (274) 
False

>  <is_a_methyl>  (274) 
False

>  <is_alpha_aa>  (274) 
False

>  <is_beta_aa>  (274) 
True

>  <is_S100_aa>  (274) 
False

>  <Murcko_SMILES>  (274) 
C1CCOC1

$$$$

     RDKit          2D

 16 17  0  0  0  0  0  0  0  0999 V2000
    4.6740   -4.8322    0.0000 C   0  0  0  0  0  0  0  0  0  0  0  0
    3.3037   -4.2221    0.0000 N   0  0  0  0  0  0  0  0  0  0  0  0
    2.9918   -2.7549    0.0000 N   0  0  0  0  0  0  0  0  0  0  0  0
    1.5000   -2.5981    0.0000 C   0  0  0  0  0  0  0  0  0  0  0  0
    0.7500   -1.2990    0.0000 C   0  0  0  0  0  0  0  0  0  0  0  0
    1.5000    0.0000    0.0000 C   0  0  0  0  0  0  0  0  0  0  0  0
    0.7500    1.2990    0.0000 C   0  0  0  0  0  0  0  0  0  0  0  0
   -0.7500    1.2990    0.0000 N   0  0  0  0  0  0  0  0  0  0  0  0
   -1.5000    2.5981    0.0000 R   0  0  0  0  0  1  0  0  0  1  0  0
   -1.5000    0.0000    0.0000 C   0  0  0  0  0  0  0  0  0  0  0  0
   -0.7500   -1.2990    0.0000 C   0  0  0  0  0  0  0  0  0  0  0  0
    0.8899   -3.9684    0.0000 C   0  0  0  0  0  0  0  0  0  0  0  0
    2.0046   -4.9721    0.0000 C   0  0  0  0  0  0  0  0  0  0  0  0
    1.8478   -6.4639    0.0000 C   0  0  0  0  0  0  0  0  0  0  0  0
    3.0613   -7.3456    0.0000 O   0  0  0  0  0  0  0  0  0  0  0  0
    0.4775   -7.0740    0.0000 R   0  0  0  0  0  1  0  0  0  2  0  0
  1  2  1  0
  2  3  1  0
  3  4  2  0
  4  5  1  0
  5  6  1  0
  6  7  1  0
  7  8  1  0
  8  9  1  0
  8 10  1  0
 10 11  1  0
  4 12  1  0
 12 13  2  0
 13 14  1  0
 14 15  2  0
 14 16  1  0
 13  2  1  0
 11  5  1  0
M  END
>  <id>  (275) 
15dc302f-d715-42c7-86cd-6b8517a0d20a

>  <Version>  (275) 
0

>  <Alias>  (275) 
PipMPz5CA

>  <Type>  (275) 
amino_acid

>  <Smiles>  (275) 
Cn1nc(C2CCN([*:1])CC2)cc1C(=O)[*:2]

>  <ProtectedSmiles>  (275) 
Cn1nc(C2CCN(C(=O)OCC3c4ccccc4-c4ccccc43)CC2)cc1C(=O)O

>  <CAS>  (275) 
2137635-02-8

>  <User>  (275) 
Sevan.habeshian@orbismedicines.com

>  <StereoComment>  (275) 
as drawn

>  <Name>  (275) 
N/A

>  <Code>  (275) 
PipMPz5CA

>  <AliasLowerCase>  (275) 
pipmpz5ca

>  <LatestVersion>  (275) 
0.0

>  <createdAt>  (275) 
2026-02-13T09:56:36.367Z

>  <updatedAt>  (275) 
2026-02-13T09:56:36.367Z

>  <NumRotatableBonds>  (275) 
2

>  <is_N_methyl>  (275) 
False

>  <is_a_methyl>  (275) 
False

>  <is_alpha_aa>  (275) 
False

>  <is_beta_aa>  (275) 
False

>  <is_S100_aa>  (275) 
False

>  <Murcko_SMILES>  (275) 
c1cc(C2CCNCC2)n[nH]1

$$$$

     RDKit          2D

 14 14  0  0  0  0  0  0  0  0999 V2000
    3.0000    1.5000    0.0000 C   0  0  0  0  0  0  0  0  0  0  0  0
    3.0000    0.0000    0.0000 C   0  0  0  0  0  0  0  0  0  0  0  0
    3.0000   -1.5000    0.0000 C   0  0  0  0  0  0  0  0  0  0  0  0
    4.5000    0.0000    0.0000 C   0  0  0  0  0  0  0  0  0  0  0  0
    5.2500   -1.2990    0.0000 O   0  0  0  0  0  0  0  0  0  0  0  0
    5.2500    1.2990    0.0000 R   0  0  0  0  0  1  0  0  0  2  0  0
    1.5000    0.0000    0.0000 C   0  0  0  0  0  0  0  0  0  0  0  0
    0.7500   -1.2990    0.0000 C   0  0  0  0  0  0  0  0  0  0  0  0
   -0.7500   -1.2990    0.0000 C   0  0  0  0  0  0  0  0  0  0  0  0
   -1.5000    0.0000    0.0000 C   0  0  0  0  0  0  0  0  0  0  0  0
   -3.0000    0.0000    0.0000 N   0  0  0  0  0  0  0  0  0  0  0  0
   -3.7500    1.2990    0.0000 R   0  0  0  0  0  1  0  0  0  1  0  0
   -0.7500    1.2990    0.0000 C   0  0  0  0  0  0  0  0  0  0  0  0
    0.7500    1.2990    0.0000 C   0  0  0  0  0  0  0  0  0  0  0  0
  1  2  1  0
  2  3  1  0
  2  4  1  0
  4  5  2  0
  4  6  1  0
  2  7  1  0
  7  8  2  0
  8  9  1  0
  9 10  2  0
 10 11  1  0
 11 12  1  0
 10 13  1  0
 13 14  2  0
 14  7  1  0
M  END
>  <id>  (276) 
4eaaa57c-2cf4-4c6c-826f-4b1aef6f0199

>  <Version>  (276) 
0

>  <Alias>  (276) 
2Me-4AMBA

>  <Type>  (276) 
amino_acid

>  <Smiles>  (276) 
CC(C)(C(=O)[*:2])c1ccc(N[*:1])cc1

>  <ProtectedSmiles>  (276) 
CC(C)(C(=O)O)c1ccc(NC(=O)OCC2c3ccccc3-c3ccccc32)cc1

>  <CAS>  (276) 
1541151-27-2

>  <User>  (276) 
Sevan.habeshian@orbismedicines.com

>  <StereoComment>  (276) 
as drawn

>  <Name>  (276) 
N/A

>  <Code>  (276) 
2Me-4AMBA

>  <AliasLowerCase>  (276) 
2me-4amba

>  <LatestVersion>  (276) 
0.0

>  <createdAt>  (276) 
2026-02-13T09:56:35.486Z

>  <updatedAt>  (276) 
2026-02-13T09:56:35.486Z

>  <NumRotatableBonds>  (276) 
3

>  <is_N_methyl>  (276) 
False

>  <is_a_methyl>  (276) 
False

>  <is_alpha_aa>  (276) 
False

>  <is_beta_aa>  (276) 
False

>  <is_S100_aa>  (276) 
False

>  <Murcko_SMILES>  (276) 
c1ccccc1

$$$$

     RDKit          2D

 14 14  0  0  0  0  0  0  0  0999 V2000
    6.0000    0.0000    0.0000 O   0  0  0  0  0  0  0  0  0  0  0  0
    5.2500   -1.2990    0.0000 C   0  0  0  0  0  0  0  0  0  0  0  0
    3.7500   -1.2990    0.0000 C   0  0  0  0  0  0  0  0  0  0  0  0
    3.0000    0.0000    0.0000 C   0  0  0  0  0  0  0  0  0  0  0  0
    1.5000    0.0000    0.0000 C   0  0  0  0  0  0  0  0  0  0  0  0
    0.7500   -1.2990    0.0000 C   0  0  0  0  0  0  0  0  0  0  0  0
   -0.7500   -1.2990    0.0000 C   0  0  0  0  0  0  0  0  0  0  0  0
   -1.5000    0.0000    0.0000 C   0  0  0  0  0  0  0  0  0  0  0  0
   -3.0000    0.0000    0.0000 Cl  0  0  0  0  0  0  0  0  0  0  0  0
   -0.7500    1.2990    0.0000 C   0  0  0  0  0  0  0  0  0  0  0  0
    0.7500    1.2990    0.0000 C   0  0  0  0  0  0  0  0  0  0  0  0
    3.0000   -2.5981    0.0000 N   0  0  0  0  0  0  0  0  0  0  0  0
    3.7500   -3.8971    0.0000 R   0  0  0  0  0  1  0  0  0  1  0  0
    6.0000   -2.5981    0.0000 R   0  0  0  0  0  1  0  0  0  2  0  0
  1  2  2  0
  2  3  1  0
  3  4  1  1
  4  5  1  0
  5  6  2  0
  6  7  1  0
  7  8  2  0
  8  9  1  0
  8 10  1  0
 10 11  2  0
  3 12  1  0
 12 13  1  0
  2 14  1  0
 11  5  1  0
M  END
>  <id>  (277) 
0bd82cd9-f46e-4edf-b518-1b7fb4cc3933

>  <Version>  (277) 
0

>  <Alias>  (277) 
4ClPhe

>  <Type>  (277) 
amino_acid

>  <Smiles>  (277) 
O=C([C@H](Cc1ccc(Cl)cc1)N[*:1])[*:2]

>  <ProtectedSmiles>  (277) 
O=C(N[C@@H](Cc1ccc(Cl)cc1)C(=O)O)OCC1c2ccccc2-c2ccccc21

>  <CAS>  (277) 
175453-08-4

>  <User>  (277) 
sevan.h

>  <StereoComment>  (277) 
as drawn

>  <Name>  (277) 
Fmoc-4-chloro-L-phenylalanine

>  <Code>  (277) 
4ClPhe

>  <AliasLowerCase>  (277) 
4clphe

>  <LatestVersion>  (277) 
0.0

>  <createdAt>  (277) 
2026-01-14T12:16:41.273Z

>  <updatedAt>  (277) 
2026-01-14T12:16:41.273Z

>  <NumRotatableBonds>  (277) 
4

>  <is_N_methyl>  (277) 
False

>  <is_a_methyl>  (277) 
False

>  <is_alpha_aa>  (277) 
True

>  <is_beta_aa>  (277) 
False

>  <is_S100_aa>  (277) 
False

>  <Murcko_SMILES>  (277) 
c1ccccc1

$$$$

     RDKit          2D

  8  7  0  0  0  0  0  0  0  0999 V2000
    1.2990   -2.2500    0.0000 O   0  0  0  0  0  0  0  0  0  0  0  0
    2.5981   -1.5000    0.0000 C   0  0  0  0  0  0  0  0  0  0  0  0
    2.5981   -0.0000    0.0000 C   0  0  0  0  0  0  0  0  0  0  0  0
    3.8971    0.7500    0.0000 C   0  0  0  0  0  0  0  0  0  0  0  0
    5.1962   -0.0000    0.0000 O   0  0  0  0  0  0  0  0  0  0  0  0
    1.2990    0.7500    0.0000 N   0  0  0  0  0  0  0  0  0  0  0  0
    0.0000    0.0000    0.0000 R   0  0  0  0  0  1  0  0  0  1  0  0
    3.8971   -2.2500    0.0000 R   0  0  0  0  0  1  0  0  0  2  0  0
  1  2  2  0
  2  3  1  0
  3  4  1  6
  4  5  1  0
  3  6  1  0
  6  7  1  0
  2  8  1  0
M  END
>  <id>  (278) 
bf1d29ce-3b09-4a0b-8130-6a888826344b

>  <Version>  (278) 
0

>  <Alias>  (278) 
D-Ser_UP

>  <Type>  (278) 
amino_acid

>  <Smiles>  (278) 
O=C([C@@H](CO)N[*:1])[*:2]

>  <ProtectedSmiles>  (278) 
O=C(N[C@H](CO)C(=O)O)OCC1c2ccccc2-c2ccccc21

>  <CAS>  (278) 
116861-26-8

>  <User>  (278) 
Sevan.habeshian@orbismedicines.com

>  <StereoComment>  (278) 
as drawn

>  <Name>  (278) 
N/A

>  <Code>  (278) 
D-Ser_UP

>  <AliasLowerCase>  (278) 
d-ser_up

>  <LatestVersion>  (278) 
0.0

>  <createdAt>  (278) 
2026-02-13T09:56:35.394Z

>  <updatedAt>  (278) 
2026-02-13T09:56:35.394Z

>  <NumRotatableBonds>  (278) 
3

>  <is_N_methyl>  (278) 
False

>  <is_a_methyl>  (278) 
False

>  <is_alpha_aa>  (278) 
True

>  <is_beta_aa>  (278) 
False

>  <is_S100_aa>  (278) 
False

>  <Murcko_SMILES>  (278) 


$$$$

     RDKit          2D

 10 10  0  0  0  0  0  0  0  0999 V2000
    3.5260    1.2990    0.0000 O   0  0  0  0  0  0  0  0  0  0  0  0
    2.7760    0.0000    0.0000 C   0  0  0  0  0  0  0  0  0  0  0  0
    1.2760    0.0000    0.0000 C   0  0  0  0  0  0  0  0  0  0  0  0
    0.3943    1.2135    0.0000 C   0  0  0  0  0  0  0  0  0  0  0  0
   -1.0323    0.7500    0.0000 C   0  0  0  0  0  0  0  0  0  0  0  0
   -1.0323   -0.7500    0.0000 C   0  0  0  0  0  0  0  0  0  0  0  0
   -2.2458   -1.6317    0.0000 N   0  0  0  0  0  0  0  0  0  0  0  0
   -3.6161   -1.0216    0.0000 R   0  0  0  0  0  1  0  0  0  1  0  0
    0.3943   -1.2135    0.0000 C   0  0  0  0  0  0  0  0  0  0  0  0
    3.5260   -1.2990    0.0000 R   0  0  0  0  0  1  0  0  0  2  0  0
  1  2  2  0
  3  2  1  6
  3  4  1  0
  4  5  1  0
  5  6  1  0
  6  7  1  6
  7  8  1  0
  6  9  1  0
  2 10  1  0
  9  3  1  0
M  END
>  <id>  (279) 
2a97b647-3d4c-4690-ab05-478859b16324

>  <Version>  (279) 
0

>  <Alias>  (279) 
cis1,3ACPC

>  <Type>  (279) 
amino_acid

>  <Smiles>  (279) 
O=C([C@H]1CC[C@@H](N[*:1])C1)[*:2]

>  <ProtectedSmiles>  (279) 
O=C(N[C@@H]1CC[C@H](C(=O)O)C1)OCC1c2ccccc2-c2ccccc21

>  <CAS>  (279) 
220497-66-5

>  <User>  (279) 
sevan.h

>  <StereoComment>  (279) 
as drawn

>  <Name>  (279) 
(+)-(1S,3R)-N-Fmoc-3-aminocyclopentanecarboxylic acid

>  <Code>  (279) 
cis1,3ACPC

>  <AliasLowerCase>  (279) 
cis1,3acpc

>  <LatestVersion>  (279) 
0.0

>  <createdAt>  (279) 
2026-01-14T12:15:47.913Z

>  <updatedAt>  (279) 
2026-01-14T12:15:47.913Z

>  <NumRotatableBonds>  (279) 
2

>  <is_N_methyl>  (279) 
False

>  <is_a_methyl>  (279) 
False

>  <is_alpha_aa>  (279) 
False

>  <is_beta_aa>  (279) 
False

>  <is_S100_aa>  (279) 
False

>  <Murcko_SMILES>  (279) 
C1CCCC1

$$$$

     RDKit          2D

 11 11  0  0  0  0  0  0  0  0999 V2000
    3.7500    1.2990    0.0000 O   0  0  0  0  0  0  0  0  0  0  0  0
    3.0000    0.0000    0.0000 C   0  0  0  0  0  0  0  0  0  0  0  0
    1.5000    0.0000    0.0000 C   0  0  0  0  0  0  0  0  0  0  0  0
    0.7500   -1.2990    0.0000 C   0  0  0  0  0  0  0  0  0  0  0  0
   -0.7500   -1.2990    0.0000 C   0  0  0  0  0  0  0  0  0  0  0  0
   -1.5000    0.0000    0.0000 C   0  0  0  0  0  0  0  0  0  0  0  0
   -0.7500    1.2990    0.0000 C   0  0  0  0  0  0  0  0  0  0  0  0
   -1.5000    2.5981    0.0000 N   0  0  0  0  0  0  0  0  0  0  0  0
   -0.7500    3.8971    0.0000 R   0  0  0  0  0  1  0  0  0  1  0  0
    0.7500    1.2990    0.0000 C   0  0  0  0  0  0  0  0  0  0  0  0
    3.7500   -1.2990    0.0000 R   0  0  0  0  0  1  0  0  0  2  0  0
  1  2  2  0
  2  3  1  0
  3  4  1  0
  4  5  1  0
  5  6  1  0
  6  7  1  0
  7  8  1  0
  8  9  1  0
  7 10  1  0
  2 11  1  0
 10  3  1  0
M  END
>  <id>  (280) 
9914de55-9a91-4902-b1de-3e53ea9e1510

>  <Version>  (280) 
0

>  <Alias>  (280) 
rac-1,3ACH

>  <Type>  (280) 
amino_acid

>  <Smiles>  (280) 
O=C(C1CCCC(N[*:1])C1)[*:2]

>  <ProtectedSmiles>  (280) 
O=C(NC1CCCC(C(=O)O)C1)OCC1c2ccccc2-c2ccccc21

>  <CAS>  (280) 
194471-84-6

>  <User>  (280) 
Sevan.habeshian@orbismedicines.com

>  <StereoComment>  (280) 
as drawn

>  <Name>  (280) 
N/A

>  <Code>  (280) 
rac-1,3ACH

>  <AliasLowerCase>  (280) 
rac-1,3ach

>  <LatestVersion>  (280) 
0.0

>  <createdAt>  (280) 
2026-02-13T09:56:35.493Z

>  <updatedAt>  (280) 
2026-02-13T09:56:35.493Z

>  <NumRotatableBonds>  (280) 
2

>  <is_N_methyl>  (280) 
False

>  <is_a_methyl>  (280) 
False

>  <is_alpha_aa>  (280) 
False

>  <is_beta_aa>  (280) 
False

>  <is_S100_aa>  (280) 
False

>  <Murcko_SMILES>  (280) 
C1CCCCC1

$$$$

     RDKit          2D

  7  6  0  0  0  0  0  0  0  0999 V2000
    3.8971    0.7500    0.0000 C   0  0  0  0  0  0  0  0  0  0  0  0
    2.5981   -0.0000    0.0000 C   0  0  0  0  0  0  0  0  0  0  0  0
    1.2990    0.7500    0.0000 N   0  0  0  0  0  0  0  0  0  0  0  0
    0.0000    0.0000    0.0000 R   0  0  0  0  0  1  0  0  0  1  0  0
    2.5981   -1.5000    0.0000 C   0  0  0  0  0  0  0  0  0  0  0  0
    1.2990   -2.2500    0.0000 O   0  0  0  0  0  0  0  0  0  0  0  0
    3.8971   -2.2500    0.0000 R   0  0  0  0  0  1  0  0  0  2  0  0
  2  1  1  6
  2  3  1  0
  3  4  1  0
  2  5  1  0
  5  6  2  0
  5  7  1  0
M  END
>  <id>  (281) 
0f80cbf4-69f1-4fd9-ad67-f021bd7dc514

>  <Version>  (281) 
0

>  <Alias>  (281) 
D-Ala

>  <Type>  (281) 
amino_acid

>  <Smiles>  (281) 
C[C@@H](N[*:1])C(=O)[*:2]

>  <ProtectedSmiles>  (281) 
C[C@@H](NC(=O)OCC1c2ccccc2-c2ccccc21)C(=O)O

>  <CAS>  (281) 
79990-15-1

>  <User>  (281) 
sevan.h

>  <StereoComment>  (281) 
as drawn

>  <Name>  (281) 
Fmoc-D-Ala-OH

>  <Code>  (281) 
D-Ala

>  <AliasLowerCase>  (281) 
d-ala

>  <LatestVersion>  (281) 
0.0

>  <createdAt>  (281) 
2026-01-14T12:17:10.022Z

>  <updatedAt>  (281) 
2026-01-14T12:17:10.022Z

>  <NumRotatableBonds>  (281) 
2

>  <is_N_methyl>  (281) 
False

>  <is_a_methyl>  (281) 
False

>  <is_alpha_aa>  (281) 
True

>  <is_beta_aa>  (281) 
False

>  <is_S100_aa>  (281) 
False

>  <Murcko_SMILES>  (281) 


$$$$

     RDKit          2D

 10 10  0  0  0  0  0  0  0  0999 V2000
    2.7760    0.0000    0.0000 C   0  0  0  0  0  0  0  0  0  0  0  0
    1.2760    0.0000    0.0000 C   0  0  0  0  0  0  0  0  0  0  0  0
    0.3943    1.2135    0.0000 C   0  0  0  0  0  0  0  0  0  0  0  0
   -1.0323    0.7500    0.0000 C   0  0  0  0  0  0  0  0  0  0  0  0
   -2.2458    1.6317    0.0000 C   0  0  0  0  0  0  0  0  0  0  0  0
   -3.6161    1.0216    0.0000 O   0  0  0  0  0  0  0  0  0  0  0  0
   -2.0890    3.1235    0.0000 R   0  0  0  0  0  1  0  0  0  2  0  0
   -1.0323   -0.7500    0.0000 N   0  0  0  0  0  0  0  0  0  0  0  0
   -2.2458   -1.6317    0.0000 R   0  0  0  0  0  1  0  0  0  1  0  0
    0.3943   -1.2135    0.0000 C   0  0  0  0  0  0  0  0  0  0  0  0
  2  1  1  1
  2  3  1  0
  3  4  1  0
  4  5  1  6
  5  6  2  0
  5  7  1  0
  4  8  1  0
  8  9  1  0
  8 10  1  0
 10  2  1  0
M  END
>  <id>  (282) 
597ec334-c158-4c22-a831-b24c6a62bd0e

>  <Version>  (282) 
0

>  <Alias>  (282) 
Pro(4R-Me)

>  <Type>  (282) 
amino_acid

>  <Smiles>  (282) 
C[C@@H]1C[C@@H](C(=O)[*:2])N([*:1])C1

>  <ProtectedSmiles>  (282) 
C[C@@H]1C[C@@H](C(=O)O)N(C(=O)OCC2c3ccccc3-c3ccccc32)C1

>  <CAS>  (282) 
333777-34-7

>  <User>  (282) 
angelica.l

>  <StereoComment>  (282) 
as drawn

>  <Name>  (282) 
(2S,4R)-1-Fmoc-4-methylpyrrolidine-2-carboxylic acid

>  <Code>  (282) 
Pro(4R-Me)

>  <AliasLowerCase>  (282) 
pro(4r-me)

>  <LatestVersion>  (282) 
0.0

>  <createdAt>  (282) 
2026-01-14T11:36:42.910Z

>  <updatedAt>  (282) 
2026-01-14T11:36:42.910Z

>  <NumRotatableBonds>  (282) 
1

>  <is_N_methyl>  (282) 
False

>  <is_a_methyl>  (282) 
False

>  <is_alpha_aa>  (282) 
True

>  <is_beta_aa>  (282) 
False

>  <is_S100_aa>  (282) 
False

>  <Murcko_SMILES>  (282) 
C1CCNC1

$$$$

     RDKit          2D

 17 18  0  0  0  0  0  0  0  0999 V2000
    4.2406   -3.8183    0.0000 O   0  0  0  0  0  0  0  0  0  0  0  0
    4.0838   -2.3265    0.0000 C   0  0  0  0  0  0  0  0  0  0  0  0
    2.7135   -1.7164    0.0000 C   0  0  0  0  0  0  0  0  0  0  0  0
    2.5567   -0.2246    0.0000 N   0  0  0  0  0  0  0  0  0  0  0  0
    3.7703    0.6571    0.0000 R   0  0  0  0  0  1  0  0  0  1  0  0
    1.5000   -2.5981    0.0000 C   0  0  0  0  0  0  0  0  0  0  0  0
    0.7500   -1.2990    0.0000 C   0  0  0  0  0  0  0  0  0  0  0  0
    1.5000    0.0000    0.0000 C   0  0  0  0  0  0  0  0  0  0  0  0
    0.7500    1.2990    0.0000 C   0  0  0  0  0  0  0  0  0  0  0  0
   -0.7500    1.2990    0.0000 C   0  0  0  0  0  0  0  0  0  0  0  0
   -1.5000    0.0000    0.0000 C   0  0  0  0  0  0  0  0  0  0  0  0
   -0.7500   -1.2990    0.0000 C   0  0  0  0  0  0  0  0  0  0  0  0
    2.5037   -3.7128    0.0000 C   0  0  0  0  0  0  0  0  0  0  0  0
    1.7537   -5.0118    0.0000 C   0  0  0  0  0  0  0  0  0  0  0  0
    0.2865   -4.7000    0.0000 C   0  0  0  0  0  0  0  0  0  0  0  0
    0.1297   -3.2082    0.0000 C   0  0  0  0  0  0  0  0  0  0  0  0
    5.2974   -1.4448    0.0000 R   0  0  0  0  0  1  0  0  0  2  0  0
  1  2  2  0
  2  3  1  0
  3  4  1  0
  4  5  1  0
  3  6  1  0
  6  7  1  0
  7  8  2  0
  8  9  1  0
  9 10  2  0
 10 11  1  0
 11 12  2  0
  6 13  1  0
 13 14  1  0
 14 15  1  0
 15 16  1  0
  2 17  1  0
 16  6  1  0
 12  7  1  0
M  END
>  <id>  (283) 
b6e012cb-44fb-4726-8730-c44be119c47d

>  <Version>  (283) 
0

>  <Alias>  (283) 
2APcpA

>  <Type>  (283) 
amino_acid

>  <Smiles>  (283) 
O=C(C(N[*:1])C1(c2ccccc2)CCCC1)[*:2]

>  <ProtectedSmiles>  (283) 
O=C(NC(C(=O)O)C1(c2ccccc2)CCCC1)OCC1c2ccccc2-c2ccccc21

>  <CAS>  (283) 
2351865-57-9

>  <User>  (283) 
mischa.s

>  <StereoComment>  (283) 
as drawn

>  <Name>  (283) 
2-({[(9H-fluoren-9-yl)methoxy]carbonyl}amino)-2-(1-phenylcyclopentyl)acetic acid

>  <Code>  (283) 
2APcpA

>  <AliasLowerCase>  (283) 
2apcpa

>  <LatestVersion>  (283) 
0.0

>  <createdAt>  (283) 
2026-01-14T11:37:52.702Z

>  <updatedAt>  (283) 
2026-01-14T11:37:52.702Z

>  <NumRotatableBonds>  (283) 
4

>  <is_N_methyl>  (283) 
False

>  <is_a_methyl>  (283) 
False

>  <is_alpha_aa>  (283) 
True

>  <is_beta_aa>  (283) 
False

>  <is_S100_aa>  (283) 
False

>  <Murcko_SMILES>  (283) 
c1ccc(C2CCCC2)cc1

$$$$

     RDKit          2D

 14 14  0  0  0  0  0  0  0  0999 V2000
    6.0000    0.0000    0.0000 O   0  0  0  0  0  0  0  0  0  0  0  0
    5.2500   -1.2990    0.0000 C   0  0  0  0  0  0  0  0  0  0  0  0
    3.7500   -1.2990    0.0000 C   0  0  0  0  0  0  0  0  0  0  0  0
    3.0000    0.0000    0.0000 C   0  0  0  0  0  0  0  0  0  0  0  0
    1.5000    0.0000    0.0000 C   0  0  0  0  0  0  0  0  0  0  0  0
    0.7500   -1.2990    0.0000 C   0  0  0  0  0  0  0  0  0  0  0  0
   -0.7500   -1.2990    0.0000 C   0  0  0  0  0  0  0  0  0  0  0  0
   -1.5000    0.0000    0.0000 C   0  0  0  0  0  0  0  0  0  0  0  0
   -0.7500    1.2990    0.0000 C   0  0  0  0  0  0  0  0  0  0  0  0
   -1.5000    2.5981    0.0000 F   0  0  0  0  0  0  0  0  0  0  0  0
    0.7500    1.2990    0.0000 C   0  0  0  0  0  0  0  0  0  0  0  0
    3.0000   -2.5981    0.0000 N   0  0  0  0  0  0  0  0  0  0  0  0
    3.7500   -3.8971    0.0000 R   0  0  0  0  0  1  0  0  0  1  0  0
    6.0000   -2.5981    0.0000 R   0  0  0  0  0  1  0  0  0  2  0  0
  1  2  2  0
  2  3  1  0
  3  4  1  1
  4  5  1  0
  5  6  2  0
  6  7  1  0
  7  8  2  0
  8  9  1  0
  9 10  1  0
  9 11  2  0
  3 12  1  0
 12 13  1  0
  2 14  1  0
 11  5  1  0
M  END
>  <id>  (284) 
10a8eb88-685c-4b49-8879-3cd81b62b3b6

>  <Version>  (284) 
0

>  <Alias>  (284) 
3FPhe

>  <Type>  (284) 
amino_acid

>  <Smiles>  (284) 
O=C([C@H](Cc1cccc(F)c1)N[*:1])[*:2]

>  <ProtectedSmiles>  (284) 
O=C(N[C@@H](Cc1cccc(F)c1)C(=O)O)OCC1c2ccccc2-c2ccccc21

>  <CAS>  (284) 
198560-68-8

>  <User>  (284) 
sevan.h

>  <StereoComment>  (284) 
as drawn

>  <Name>  (284) 
Fmoc-3-Fluoro-L-Phenylalanine

>  <Code>  (284) 
3FPhe

>  <AliasLowerCase>  (284) 
3fphe

>  <LatestVersion>  (284) 
0.0

>  <createdAt>  (284) 
2026-01-14T12:15:34.777Z

>  <updatedAt>  (284) 
2026-01-14T12:15:34.777Z

>  <NumRotatableBonds>  (284) 
4

>  <is_N_methyl>  (284) 
False

>  <is_a_methyl>  (284) 
False

>  <is_alpha_aa>  (284) 
True

>  <is_beta_aa>  (284) 
False

>  <is_S100_aa>  (284) 
False

>  <Murcko_SMILES>  (284) 
c1ccccc1

$$$$

     RDKit          2D

 10 10  0  0  0  0  0  0  0  0999 V2000
    3.5260    1.2990    0.0000 O   0  0  0  0  0  0  0  0  0  0  0  0
    2.7760    0.0000    0.0000 C   0  0  0  0  0  0  0  0  0  0  0  0
    1.2760    0.0000    0.0000 C   0  0  0  0  0  0  0  0  0  0  0  0
    0.3943    1.2135    0.0000 C   0  0  0  0  0  0  0  0  0  0  0  0
   -1.0323    0.7500    0.0000 C   0  0  0  0  0  0  0  0  0  0  0  0
   -2.2458    1.6317    0.0000 O   0  0  0  0  0  0  0  0  0  0  0  0
   -1.0323   -0.7500    0.0000 C   0  0  0  0  0  0  0  0  0  0  0  0
    0.3943   -1.2135    0.0000 N   0  0  0  0  0  0  0  0  0  0  0  0
    0.8578   -2.6401    0.0000 R   0  0  0  0  0  1  0  0  0  1  0  0
    3.5260   -1.2990    0.0000 R   0  0  0  0  0  1  0  0  0  2  0  0
  1  2  2  0
  3  2  1  1
  3  4  1  0
  4  5  1  0
  5  6  1  6
  5  7  1  0
  7  8  1  0
  8  9  1  0
  2 10  1  0
  8  3  1  0
M  END
>  <id>  (285) 
8fbc7376-b829-4435-b626-fd1bc5e34248

>  <Version>  (285) 
0

>  <Alias>  (285) 
Hyp

>  <Type>  (285) 
amino_acid

>  <Smiles>  (285) 
O=C([C@@H]1C[C@@H](O)CN1[*:1])[*:2]

>  <ProtectedSmiles>  (285) 
CC(C)(C)O[C@@H]1C[C@@H](C(=O)O)N(C(=O)OCC2c3ccccc3-c3ccccc32)C1

>  <CAS>  (285) 
122996-47-8

>  <User>  (285) 
sevan.h

>  <StereoComment>  (285) 
as drawn

>  <Name>  (285) 
Fmoc-Hyp(OtBu)-OH

>  <Code>  (285) 
Hyp

>  <AliasLowerCase>  (285) 
hyp

>  <LatestVersion>  (285) 
0.0

>  <createdAt>  (285) 
2026-01-14T12:16:30.170Z

>  <updatedAt>  (285) 
2026-01-14T12:16:30.170Z

>  <NumRotatableBonds>  (285) 
1

>  <is_N_methyl>  (285) 
False

>  <is_a_methyl>  (285) 
False

>  <is_alpha_aa>  (285) 
True

>  <is_beta_aa>  (285) 
False

>  <is_S100_aa>  (285) 
False

>  <Murcko_SMILES>  (285) 
C1CCNC1

$$$$

     RDKit          2D

 13 14  0  0  0  0  0  0  0  0999 V2000
    3.4979    0.5627    0.0000 O   0  0  0  0  0  0  0  0  0  0  0  0
    3.4979   -0.9373    0.0000 C   0  0  0  0  0  0  0  0  0  0  0  0
    2.1989   -1.6873    0.0000 C   0  0  0  0  0  0  0  0  0  0  0  0
    1.8107   -3.1362    0.0000 N   0  0  0  0  0  0  0  0  0  0  0  0
    2.5607   -4.4352    0.0000 R   0  0  0  0  0  1  0  0  0  1  0  0
    0.3618   -2.7479    0.0000 C   0  0  0  0  0  0  0  0  0  0  0  0
    0.7500   -1.2990    0.0000 C   0  0  0  0  0  0  0  0  0  0  0  0
    1.5000    0.0000    0.0000 C   0  0  0  0  0  0  0  0  0  0  0  0
    0.7500    1.2990    0.0000 C   0  0  0  0  0  0  0  0  0  0  0  0
   -0.7500    1.2990    0.0000 O   0  0  0  0  0  0  0  0  0  0  0  0
   -1.5000    0.0000    0.0000 C   0  0  0  0  0  0  0  0  0  0  0  0
   -0.7500   -1.2990    0.0000 C   0  0  0  0  0  0  0  0  0  0  0  0
    4.7970   -1.6873    0.0000 R   0  0  0  0  0  1  0  0  0  2  0  0
  1  2  2  0
  2  3  1  0
  3  4  1  0
  4  5  1  0
  4  6  1  0
  6  7  1  0
  7  8  1  0
  8  9  1  0
  9 10  1  0
 10 11  1  0
 11 12  1  0
  2 13  1  0
  7  3  1  0
 12  7  1  0
M  END
>  <id>  (286) 
532bd79f-95ee-42a1-bb97-0256d94f736d

>  <Version>  (286) 
0

>  <Alias>  (286) 
OxaSpiroNonCA

>  <Type>  (286) 
amino_acid

>  <Smiles>  (286) 
O=C(C1N([*:1])CC12CCOCC2)[*:2]

>  <ProtectedSmiles>  (286) 
O=C(O)C1N(C(=O)OCC2c3ccccc3-c3ccccc32)CC12CCOCC2

>  <CAS>  (286) 
2137503-11-6

>  <User>  (286) 
Sevan.habeshian@orbismedicines.com

>  <StereoComment>  (286) 
as drawn

>  <Name>  (286) 
N/A

>  <Code>  (286) 
OxaSpiroNonCA

>  <AliasLowerCase>  (286) 
oxaspirononca

>  <LatestVersion>  (286) 
0.0

>  <createdAt>  (286) 
2026-02-13T09:56:35.393Z

>  <updatedAt>  (286) 
2026-02-13T09:56:35.393Z

>  <NumRotatableBonds>  (286) 
1

>  <is_N_methyl>  (286) 
False

>  <is_a_methyl>  (286) 
False

>  <is_alpha_aa>  (286) 
True

>  <is_beta_aa>  (286) 
False

>  <is_S100_aa>  (286) 
False

>  <Murcko_SMILES>  (286) 
C1CC2(CCO1)CNC2

$$$$

     RDKit          2D

 15 16  0  0  0  0  0  0  0  0999 V2000
    4.0025    0.6839    0.0000 O   0  0  0  0  0  0  0  0  0  0  0  0
    3.5604    2.1172    0.0000 C   0  0  0  0  0  0  0  0  0  0  0  0
    2.0980    2.4510    0.0000 C   0  0  0  0  0  0  0  0  0  0  0  0
    1.6559    3.8844    0.0000 C   0  0  0  0  0  0  0  0  0  0  0  0
    0.1935    4.2182    0.0000 C   0  0  0  0  0  0  0  0  0  0  0  0
   -0.8268    3.1186    0.0000 C   0  0  0  0  0  0  0  0  0  0  0  0
   -0.3846    1.6852    0.0000 C   0  0  0  0  0  0  0  0  0  0  0  0
    1.0777    1.3515    0.0000 C   0  0  0  0  0  0  0  0  0  0  0  0
    1.7286    0.0000    0.0000 O   0  0  0  0  0  0  0  0  0  0  0  0
    1.0777   -1.3515    0.0000 C   0  0  0  0  0  0  0  0  0  0  0  0
   -0.3846   -1.6852    0.0000 C   0  0  0  0  0  0  0  0  0  0  0  0
   -1.5574   -0.7500    0.0000 N   0  0  0  0  0  0  0  0  0  0  0  0
   -2.9088   -1.4008    0.0000 R   0  0  0  0  0  1  0  0  0  1  0  0
   -1.5574    0.7500    0.0000 C   0  0  0  0  0  0  0  0  0  0  0  0
    4.5807    3.2168    0.0000 R   0  0  0  0  0  1  0  0  0  2  0  0
  1  2  2  0
  2  3  1  0
  3  4  2  0
  4  5  1  0
  5  6  2  0
  6  7  1  0
  7  8  2  0
  8  9  1  0
  9 10  1  0
 10 11  1  0
 11 12  1  0
 12 13  1  0
 12 14  1  0
  2 15  1  0
  8  3  1  0
 14  7  1  0
M  END
>  <id>  (287) 
a5e1461d-5551-437c-8568-daf91239b396

>  <Version>  (287) 
0

>  <Alias>  (287) 
Thbap

>  <Type>  (287) 
amino_acid

>  <Smiles>  (287) 
O=C(c1cccc2c1OCCN([*:1])C2)[*:2]

>  <ProtectedSmiles>  (287) 
O=C(O)c1cccc2c1OCCN(C(=O)OCC1c3ccccc3-c3ccccc31)C2

>  <CAS>  (287) 
2137652-33-4

>  <User>  (287) 
mischa.s

>  <StereoComment>  (287) 
as drawn

>  <Name>  (287) 
4-{[(9H-fluoren-9-yl)methoxy]carbonyl}-2,3,4,5-tetrahydro-1,4-benzoxazepine-9-carboxylic acid

>  <Code>  (287) 
Thbap

>  <AliasLowerCase>  (287) 
thbap

>  <LatestVersion>  (287) 
0.0

>  <createdAt>  (287) 
2026-01-14T11:37:53.884Z

>  <updatedAt>  (287) 
2026-01-14T11:37:53.884Z

>  <NumRotatableBonds>  (287) 
1

>  <is_N_methyl>  (287) 
False

>  <is_a_methyl>  (287) 
False

>  <is_alpha_aa>  (287) 
False

>  <is_beta_aa>  (287) 
False

>  <is_S100_aa>  (287) 
False

>  <Murcko_SMILES>  (287) 
c1ccc2c(c1)CNCCO2

$$$$

     RDKit          2D

 14 14  0  0  0  0  0  0  0  0999 V2000
    3.7500    1.2990    0.0000 O   0  0  0  0  0  0  0  0  0  0  0  0
    3.0000    0.0000    0.0000 C   0  0  0  0  0  0  0  0  0  0  0  0
    1.5000    0.0000    0.0000 C   0  0  0  0  0  0  0  0  0  0  0  0
    0.7500   -1.2990    0.0000 C   0  0  0  0  0  0  0  0  0  0  0  0
   -0.7500   -1.2990    0.0000 C   0  0  0  0  0  0  0  0  0  0  0  0
   -1.5000    0.0000    0.0000 C   0  0  0  0  0  0  0  0  0  0  0  0
   -3.0000    0.0000    0.0000 O   0  0  0  0  0  0  0  0  0  0  0  0
   -3.7500    1.2990    0.0000 C   0  0  0  0  0  0  0  0  0  0  0  0
   -5.2500    1.2990    0.0000 C   0  0  0  0  0  0  0  0  0  0  0  0
   -6.0000    2.5981    0.0000 N   0  0  0  0  0  0  0  0  0  0  0  0
   -7.5000    2.5981    0.0000 R   0  0  0  0  0  1  0  0  0  1  0  0
   -0.7500    1.2990    0.0000 C   0  0  0  0  0  0  0  0  0  0  0  0
    0.7500    1.2990    0.0000 C   0  0  0  0  0  0  0  0  0  0  0  0
    3.7500   -1.2990    0.0000 R   0  0  0  0  0  1  0  0  0  2  0  0
  1  2  2  0
  2  3  1  0
  3  4  2  0
  4  5  1  0
  5  6  2  0
  6  7  1  0
  7  8  1  0
  8  9  1  0
  9 10  1  0
 10 11  1  0
  6 12  1  0
 12 13  2  0
  2 14  1  0
 13  3  1  0
M  END
>  <id>  (288) 
5014d7c0-46aa-43ad-8896-4c183ba56723

>  <Version>  (288) 
0

>  <Alias>  (288) 
4-(NH2EtO)Bz

>  <Type>  (288) 
amino_acid

>  <Smiles>  (288) 
O=C(c1ccc(OCCN[*:1])cc1)[*:2]

>  <ProtectedSmiles>  (288) 
O=C(NCCOc1ccc(C(=O)O)cc1)OCC1c2ccccc2-c2ccccc21

>  <CAS>  (288) 
882847-29-2

>  <User>  (288) 
Sevan.habeshian@orbismedicines.com

>  <StereoComment>  (288) 
as drawn

>  <Name>  (288) 
N/A

>  <Code>  (288) 
4-(NH2EtO)Bz

>  <AliasLowerCase>  (288) 
4-(nh2eto)bz

>  <LatestVersion>  (288) 
0.0

>  <createdAt>  (288) 
2026-02-13T09:56:35.485Z

>  <updatedAt>  (288) 
2026-02-13T09:56:35.485Z

>  <NumRotatableBonds>  (288) 
5

>  <is_N_methyl>  (288) 
False

>  <is_a_methyl>  (288) 
False

>  <is_alpha_aa>  (288) 
False

>  <is_beta_aa>  (288) 
False

>  <is_S100_aa>  (288) 
False

>  <Murcko_SMILES>  (288) 
c1ccccc1

$$$$

     RDKit          2D

  9  9  0  0  0  0  0  0  0  0999 V2000
    3.5260    1.2990    0.0000 O   0  0  0  0  0  0  0  0  0  0  0  0
    2.7760    0.0000    0.0000 C   0  0  0  0  0  0  0  0  0  0  0  0
    1.2760    0.0000    0.0000 C   0  0  0  0  0  0  0  0  0  0  0  0
    0.3943    1.2135    0.0000 C   0  0  0  0  0  0  0  0  0  0  0  0
   -1.0323    0.7500    0.0000 S   0  0  0  0  0  0  0  0  0  0  0  0
   -1.0323   -0.7500    0.0000 C   0  0  0  0  0  0  0  0  0  0  0  0
    0.3943   -1.2135    0.0000 N   0  0  0  0  0  0  0  0  0  0  0  0
    0.8578   -2.6401    0.0000 R   0  0  0  0  0  1  0  0  0  1  0  0
    3.5260   -1.2990    0.0000 R   0  0  0  0  0  1  0  0  0  2  0  0
  1  2  2  0
  3  2  1  6
  3  4  1  0
  4  5  1  0
  5  6  1  0
  6  7  1  0
  7  8  1  0
  2  9  1  0
  7  3  1  0
M  END
>  <id>  (289) 
0feadcfc-499c-4264-8d9d-0097b1437d5b

>  <Version>  (289) 
0

>  <Alias>  (289) 
THL

>  <Type>  (289) 
amino_acid

>  <Smiles>  (289) 
O=C([C@H]1CSCN1[*:1])[*:2]

>  <ProtectedSmiles>  (289) 
O=C(O)[C@H]1CSCN1C(=O)OCC1c2ccccc2-c2ccccc21

>  <CAS>  (289) 
198545-89-0

>  <User>  (289) 
mischa.s

>  <StereoComment>  (289) 
as drawn

>  <Name>  (289) 
(4S)-3-(9H-fluoren-9-ylmethoxycarbonyl)thiazolidine-4-carboxylic acid

>  <Code>  (289) 
THL

>  <AliasLowerCase>  (289) 
thl

>  <LatestVersion>  (289) 
0.0

>  <createdAt>  (289) 
2026-01-14T11:36:37.521Z

>  <updatedAt>  (289) 
2026-01-14T11:36:37.521Z

>  <NumRotatableBonds>  (289) 
1

>  <is_N_methyl>  (289) 
False

>  <is_a_methyl>  (289) 
False

>  <is_alpha_aa>  (289) 
True

>  <is_beta_aa>  (289) 
False

>  <is_S100_aa>  (289) 
False

>  <Murcko_SMILES>  (289) 
C1CSCN1

$$$$

     RDKit          2D

 13 13  0  0  0  0  0  0  0  0999 V2000
    3.0000   -2.5981    0.0000 O   0  0  0  0  0  0  0  0  0  0  0  0
    3.7500   -1.2990    0.0000 C   0  0  0  0  0  0  0  0  0  0  0  0
    3.0000    0.0000    0.0000 C   0  0  0  0  0  0  0  0  0  0  0  0
    3.7500    1.2990    0.0000 N   0  0  0  0  0  0  0  0  0  0  0  0
    5.2500    1.2990    0.0000 R   0  0  0  0  0  1  0  0  0  1  0  0
    1.5000    0.0000    0.0000 C   0  0  0  0  0  0  0  0  0  0  0  0
    0.7500   -1.2990    0.0000 C   0  0  0  0  0  0  0  0  0  0  0  0
   -0.7500   -1.2990    0.0000 C   0  0  0  0  0  0  0  0  0  0  0  0
   -1.5000    0.0000    0.0000 C   0  0  0  0  0  0  0  0  0  0  0  0
   -3.0000    0.0000    0.0000 O   0  0  0  0  0  0  0  0  0  0  0  0
   -0.7500    1.2990    0.0000 C   0  0  0  0  0  0  0  0  0  0  0  0
    0.7500    1.2990    0.0000 C   0  0  0  0  0  0  0  0  0  0  0  0
    5.2500   -1.2990    0.0000 R   0  0  0  0  0  1  0  0  0  2  0  0
  1  2  2  0
  2  3  1  0
  3  4  1  1
  4  5  1  0
  3  6  1  0
  6  7  2  0
  7  8  1  0
  8  9  2  0
  9 10  1  0
  9 11  1  0
 11 12  2  0
  2 13  1  0
 12  6  1  0
M  END
>  <id>  (290) 
0e76c466-4bae-4e28-a308-dc82266af253

>  <Version>  (290) 
0

>  <Alias>  (290) 
(2R)4HOPhGly

>  <Type>  (290) 
amino_acid

>  <Smiles>  (290) 
O=C([C@H](N[*:1])c1ccc(O)cc1)[*:2]

>  <ProtectedSmiles>  (290) 
O=C(N[C@@H](C(=O)O)c1ccc(O)cc1)OCC1c2ccccc2-c2ccccc21

>  <CAS>  (290) 
178119-93-2

>  <User>  (290) 
angelica.l

>  <StereoComment>  (290) 
as drawn

>  <Name>  (290) 
(2R)-2-({[(9H-fluoren-9-yl)methoxy]carbonyl}amino)-2-(4-hydroxyphenyl)acetic acid

>  <Code>  (290) 
(2R)4HOPhGly

>  <AliasLowerCase>  (290) 
(2r)4hophgly

>  <LatestVersion>  (290) 
0.0

>  <createdAt>  (290) 
2026-01-14T11:35:19.046Z

>  <updatedAt>  (290) 
2026-01-14T11:35:19.046Z

>  <NumRotatableBonds>  (290) 
3

>  <is_N_methyl>  (290) 
False

>  <is_a_methyl>  (290) 
False

>  <is_alpha_aa>  (290) 
True

>  <is_beta_aa>  (290) 
False

>  <is_S100_aa>  (290) 
False

>  <Murcko_SMILES>  (290) 
c1ccccc1

$$$$

     RDKit          2D

 17 18  0  0  0  0  0  0  0  0999 V2000
   -2.6401   -3.1891    0.0000 C   0  0  0  0  0  0  0  0  0  0  0  0
   -1.2135   -2.7256    0.0000 N   0  0  0  0  0  0  0  0  0  0  0  0
   -0.0000   -3.6073    0.0000 C   0  0  0  0  0  0  0  0  0  0  0  0
    1.2135   -2.7256    0.0000 C   0  0  0  0  0  0  0  0  0  0  0  0
    2.6401   -3.1891    0.0000 C   0  0  0  0  0  0  0  0  0  0  0  0
    2.9520   -4.6564    0.0000 C   0  0  0  0  0  0  0  0  0  0  0  0
    1.8373   -5.6601    0.0000 N   0  0  0  0  0  0  0  0  0  0  0  0
    2.1491   -7.1273    0.0000 R   0  0  0  0  0  1  0  0  0  1  0  0
    4.3786   -5.1199    0.0000 C   0  0  0  0  0  0  0  0  0  0  0  0
    5.4933   -4.1162    0.0000 O   0  0  0  0  0  0  0  0  0  0  0  0
    4.6904   -6.5871    0.0000 R   0  0  0  0  0  1  0  0  0  2  0  0
    0.7500   -1.2990    0.0000 C   0  0  0  0  0  0  0  0  0  0  0  0
    1.5000    0.0000    0.0000 C   0  0  0  0  0  0  0  0  0  0  0  0
    0.7500    1.2990    0.0000 C   0  0  0  0  0  0  0  0  0  0  0  0
   -0.7500    1.2990    0.0000 C   0  0  0  0  0  0  0  0  0  0  0  0
   -1.5000    0.0000    0.0000 C   0  0  0  0  0  0  0  0  0  0  0  0
   -0.7500   -1.2990    0.0000 C   0  0  0  0  0  0  0  0  0  0  0  0
  1  2  1  0
  2  3  1  0
  3  4  2  0
  4  5  1  0
  6  5  1  1
  6  7  1  0
  7  8  1  0
  6  9  1  0
  9 10  2  0
  9 11  1  0
  4 12  1  0
 12 13  2  0
 13 14  1  0
 14 15  2  0
 15 16  1  0
 16 17  2  0
 17  2  1  0
 17 12  1  0
M  END
>  <id>  (291) 
2e0c7ccb-b7c0-4125-820d-bfecc74debbc

>  <Version>  (291) 
0

>  <Alias>  (291) 
Trp(1Me)

>  <Type>  (291) 
amino_acid

>  <Smiles>  (291) 
Cn1cc(C[C@H](N[*:1])C(=O)[*:2])c2ccccc21

>  <ProtectedSmiles>  (291) 
Cn1cc(C[C@H](NC(=O)OCC2c3ccccc3-c3ccccc32)C(=O)O)c2ccccc21

>  <CAS>  (291) 
1334509-86-2

>  <User>  (291) 
mischa.s

>  <StereoComment>  (291) 
as drawn

>  <Name>  (291) 
Fmoc-Trp(Me)-OH

>  <Code>  (291) 
Trp(1Me)

>  <AliasLowerCase>  (291) 
trp(1me)

>  <LatestVersion>  (291) 
0.0

>  <createdAt>  (291) 
2026-01-14T11:36:18.264Z

>  <updatedAt>  (291) 
2026-01-14T11:36:18.264Z

>  <NumRotatableBonds>  (291) 
4

>  <is_N_methyl>  (291) 
False

>  <is_a_methyl>  (291) 
False

>  <is_alpha_aa>  (291) 
True

>  <is_beta_aa>  (291) 
False

>  <is_S100_aa>  (291) 
False

>  <Murcko_SMILES>  (291) 
c1ccc2[nH]ccc2c1

$$$$

     RDKit          2D

 15 15  0  0  0  0  0  0  0  0999 V2000
    3.0000    0.0000    0.0000 C   0  0  0  0  0  0  0  0  0  0  0  0
    1.5000    0.0000    0.0000 C   0  0  0  0  0  0  0  0  0  0  0  0
    0.7500   -1.2990    0.0000 C   0  0  0  0  0  0  0  0  0  0  0  0
   -0.7500   -1.2990    0.0000 C   0  0  0  0  0  0  0  0  0  0  0  0
   -1.5000   -2.5981    0.0000 C   0  0  0  0  0  0  0  0  0  0  0  0
   -1.5000    0.0000    0.0000 C   0  0  0  0  0  0  0  0  0  0  0  0
   -0.7500    1.2990    0.0000 C   0  0  0  0  0  0  0  0  0  0  0  0
   -1.5000    2.5981    0.0000 C   0  0  0  0  0  0  0  0  0  0  0  0
   -0.7500    3.8971    0.0000 C   0  0  0  0  0  0  0  0  0  0  0  0
    0.7500    3.8971    0.0000 N   0  0  0  0  0  0  0  0  0  0  0  0
    1.5000    5.1962    0.0000 R   0  0  0  0  0  1  0  0  0  1  0  0
   -1.5000    5.1962    0.0000 C   0  0  0  0  0  0  0  0  0  0  0  0
   -3.0000    5.1962    0.0000 O   0  0  0  0  0  0  0  0  0  0  0  0
   -0.7500    6.4952    0.0000 R   0  0  0  0  0  1  0  0  0  2  0  0
    0.7500    1.2990    0.0000 C   0  0  0  0  0  0  0  0  0  0  0  0
  1  2  1  0
  2  3  2  0
  3  4  1  0
  4  5  1  0
  4  6  2  0
  6  7  1  0
  7  8  1  0
  9  8  1  1
  9 10  1  0
 10 11  1  0
  9 12  1  0
 12 13  2  0
 12 14  1  0
  7 15  2  0
 15  2  1  0
M  END
>  <id>  (292) 
1beb0e93-07d8-4069-a9b7-1da524169036

>  <Version>  (292) 
0

>  <Alias>  (292) 
(S)-(3,5-diMe)Phe

>  <Type>  (292) 
amino_acid

>  <Smiles>  (292) 
Cc1cc(C)cc(C[C@H](N[*:1])C(=O)[*:2])c1

>  <ProtectedSmiles>  (292) 
Cc1cc(C)cc(C[C@H](NC(=O)OCC2c3ccccc3-c3ccccc32)C(=O)O)c1

>  <CAS>  (292) 
1270295-34-5

>  <User>  (292) 
mischa.s

>  <StereoComment>  (292) 
as drawn

>  <Name>  (292) 
Fmoc-L-Phe(3,5-Me2)-OH

>  <Code>  (292) 
(S)-(3,5-diMe)Phe

>  <AliasLowerCase>  (292) 
(s)-(3,5-dime)phe

>  <LatestVersion>  (292) 
0.0

>  <createdAt>  (292) 
2026-01-14T11:33:19.226Z

>  <updatedAt>  (292) 
2026-01-14T11:33:19.226Z

>  <NumRotatableBonds>  (292) 
4

>  <is_N_methyl>  (292) 
False

>  <is_a_methyl>  (292) 
False

>  <is_alpha_aa>  (292) 
True

>  <is_beta_aa>  (292) 
False

>  <is_S100_aa>  (292) 
False

>  <Murcko_SMILES>  (292) 
c1ccccc1

$$$$

     RDKit          2D

 12 12  0  0  0  0  0  0  0  0999 V2000
    5.7760    0.0000    0.0000 O   0  0  0  0  0  0  0  0  0  0  0  0
    5.0260   -1.2990    0.0000 C   0  0  0  0  0  0  0  0  0  0  0  0
    3.5260   -1.2990    0.0000 C   0  0  0  0  0  0  0  0  0  0  0  0
    2.7760    0.0000    0.0000 C   0  0  0  0  0  0  0  0  0  0  0  0
    1.2760    0.0000    0.0000 N   0  0  0  0  0  0  0  0  0  0  0  0
    0.3943    1.2135    0.0000 C   0  0  0  0  0  0  0  0  0  0  0  0
   -1.0323    0.7500    0.0000 N   0  0  0  0  0  0  0  0  0  0  0  0
   -1.0323   -0.7500    0.0000 C   0  0  0  0  0  0  0  0  0  0  0  0
    0.3943   -1.2135    0.0000 N   0  0  0  0  0  0  0  0  0  0  0  0
    2.7760   -2.5981    0.0000 N   0  0  0  0  0  0  0  0  0  0  0  0
    3.5260   -3.8971    0.0000 R   0  0  0  0  0  1  0  0  0  1  0  0
    5.7760   -2.5981    0.0000 R   0  0  0  0  0  1  0  0  0  2  0  0
  1  2  2  0
  2  3  1  0
  3  4  1  0
  4  5  1  0
  5  6  1  0
  6  7  2  0
  7  8  1  0
  8  9  2  0
  3 10  1  0
 10 11  1  0
  2 12  1  0
  9  5  1  0
M  END
>  <id>  (293) 
d416d871-6dd1-4455-875b-86bc4aa4e360

>  <Version>  (293) 
0

>  <Alias>  (293) 
rac-(1-Trzl)-Ala

>  <Type>  (293) 
amino_acid

>  <Smiles>  (293) 
O=C(C(Cn1cncn1)N[*:1])[*:2]

>  <ProtectedSmiles>  (293) 
O=C(NC(Cn1cncn1)C(=O)O)OCC1c2ccccc2-c2ccccc21

>  <CAS>  (293) 
224173-51-7

>  <User>  (293) 
Sevan.habeshian@orbismedicines.com

>  <StereoComment>  (293) 
as drawn

>  <Name>  (293) 
N/A

>  <Code>  (293) 
rac-(1-Trzl)-Ala

>  <AliasLowerCase>  (293) 
rac-(1-trzl)-ala

>  <LatestVersion>  (293) 
0.0

>  <createdAt>  (293) 
2026-02-13T09:56:36.388Z

>  <updatedAt>  (293) 
2026-02-13T09:56:36.388Z

>  <NumRotatableBonds>  (293) 
4

>  <is_N_methyl>  (293) 
False

>  <is_a_methyl>  (293) 
False

>  <is_alpha_aa>  (293) 
True

>  <is_beta_aa>  (293) 
False

>  <is_S100_aa>  (293) 
False

>  <Murcko_SMILES>  (293) 
c1nc[nH]n1

$$$$

     RDKit          2D

 12 12  0  0  0  0  0  0  0  0999 V2000
    5.7760    0.0000    0.0000 O   0  0  0  0  0  0  0  0  0  0  0  0
    5.0260   -1.2990    0.0000 C   0  0  0  0  0  0  0  0  0  0  0  0
    3.5260   -1.2990    0.0000 C   0  0  0  0  0  0  0  0  0  0  0  0
    2.7760    0.0000    0.0000 C   0  0  0  0  0  0  0  0  0  0  0  0
    1.2760    0.0000    0.0000 C   0  0  0  0  0  0  0  0  0  0  0  0
    0.3943    1.2135    0.0000 C   0  0  0  0  0  0  0  0  0  0  0  0
   -1.0323    0.7500    0.0000 N   0  0  0  0  0  0  0  0  0  0  0  0
   -1.0323   -0.7500    0.0000 C   0  0  0  0  0  0  0  0  0  0  0  0
    0.3943   -1.2135    0.0000 N   0  0  0  0  0  0  0  0  0  0  0  0
    2.7760   -2.5981    0.0000 N   0  0  0  0  0  0  0  0  0  0  0  0
    3.5260   -3.8971    0.0000 R   0  0  0  0  0  1  0  0  0  1  0  0
    5.7760   -2.5981    0.0000 R   0  0  0  0  0  1  0  0  0  2  0  0
  1  2  2  0
  2  3  1  0
  3  4  1  1
  4  5  1  0
  5  6  2  0
  6  7  1  0
  7  8  2  0
  8  9  1  0
  3 10  1  0
 10 11  1  0
  2 12  1  0
  9  5  1  0
M  END
>  <id>  (294) 
fdf644a0-b745-42ab-8266-80be5ab0506f

>  <Version>  (294) 
0

>  <Alias>  (294) 
His

>  <Type>  (294) 
amino_acid

>  <Smiles>  (294) 
O=C([C@H](Cc1cnc[nH]1)N[*:1])[*:2]

>  <ProtectedSmiles>  (294) 
O=C(N[C@@H](Cc1cn(C(c2ccccc2)(c2ccccc2)c2ccccc2)cn1)C(=O)O)OCC1c2ccccc2-c2ccccc21

>  <CAS>  (294) 
109425-51-6

>  <User>  (294) 
sevan.h

>  <StereoComment>  (294) 
as drawn

>  <Name>  (294) 
Fmoc-His(trt)-oh

>  <Code>  (294) 
His

>  <AliasLowerCase>  (294) 
his

>  <LatestVersion>  (294) 
0.0

>  <createdAt>  (294) 
2026-01-14T12:17:18.461Z

>  <updatedAt>  (294) 
2026-01-14T12:17:18.461Z

>  <NumRotatableBonds>  (294) 
4

>  <is_N_methyl>  (294) 
False

>  <is_a_methyl>  (294) 
False

>  <is_alpha_aa>  (294) 
True

>  <is_beta_aa>  (294) 
False

>  <is_S100_aa>  (294) 
False

>  <Murcko_SMILES>  (294) 
c1c[nH]cn1

$$$$

     RDKit          2D

 16 17  0  0  0  0  0  0  0  0999 V2000
   -0.5773   -4.2803    0.0000 C   0  0  0  0  0  0  0  0  0  0  0  0
    0.8899   -3.9684    0.0000 N   0  0  0  0  0  0  0  0  0  0  0  0
    2.0046   -4.9721    0.0000 N   0  0  0  0  0  0  0  0  0  0  0  0
    3.3037   -4.2221    0.0000 N   0  0  0  0  0  0  0  0  0  0  0  0
    2.9918   -2.7549    0.0000 C   0  0  0  0  0  0  0  0  0  0  0  0
    3.9955   -1.6402    0.0000 C   0  0  0  0  0  0  0  0  0  0  0  0
    3.5320   -0.2136    0.0000 O   0  0  0  0  0  0  0  0  0  0  0  0
    5.4627   -1.9520    0.0000 R   0  0  0  0  0  1  0  0  0  2  0  0
    1.5000   -2.5981    0.0000 C   0  0  0  0  0  0  0  0  0  0  0  0
    0.7500   -1.2990    0.0000 C   0  0  0  0  0  0  0  0  0  0  0  0
    1.5000    0.0000    0.0000 C   0  0  0  0  0  0  0  0  0  0  0  0
    0.7500    1.2990    0.0000 C   0  0  0  0  0  0  0  0  0  0  0  0
   -0.7500    1.2990    0.0000 N   0  0  0  0  0  0  0  0  0  0  0  0
   -1.5000    2.5981    0.0000 R   0  0  0  0  0  1  0  0  0  1  0  0
   -1.5000    0.0000    0.0000 C   0  0  0  0  0  0  0  0  0  0  0  0
   -0.7500   -1.2990    0.0000 C   0  0  0  0  0  0  0  0  0  0  0  0
  1  2  1  0
  2  3  1  0
  3  4  2  0
  4  5  1  0
  5  6  1  0
  6  7  2  0
  6  8  1  0
  5  9  2  0
  9 10  1  0
 10 11  1  0
 11 12  1  0
 12 13  1  0
 13 14  1  0
 13 15  1  0
 15 16  1  0
  9  2  1  0
 16 10  1  0
M  END
>  <id>  (295) 
c4ae8737-09c4-43bc-b693-e909190f171f

>  <Version>  (295) 
0

>  <Alias>  (295) 
4Pip1MeTz4CA

>  <Type>  (295) 
amino_acid

>  <Smiles>  (295) 
Cn1nnc(C(=O)[*:2])c1C1CCN([*:1])CC1

>  <ProtectedSmiles>  (295) 
Cn1nnc(C(=O)O)c1C1CCN(C(=O)OCC2c3ccccc3-c3ccccc32)CC1

>  <CAS>  (295) 
2137972-03-1

>  <User>  (295) 
mischa.s

>  <StereoComment>  (295) 
as drawn

>  <Name>  (295) 
5-(1-{[(9H-fluoren-9-yl)methoxy]carbonyl}piperidin-4-yl)-1-methyl-1H-1,2,3-triazole-4-carboxylic acid

>  <Code>  (295) 
4Pip1MeTz4CA

>  <AliasLowerCase>  (295) 
4pip1metz4ca

>  <LatestVersion>  (295) 
0.0

>  <createdAt>  (295) 
2026-01-14T11:32:31.347Z

>  <updatedAt>  (295) 
2026-01-14T11:32:31.347Z

>  <NumRotatableBonds>  (295) 
2

>  <is_N_methyl>  (295) 
False

>  <is_a_methyl>  (295) 
False

>  <is_alpha_aa>  (295) 
False

>  <is_beta_aa>  (295) 
False

>  <is_S100_aa>  (295) 
False

>  <Murcko_SMILES>  (295) 
c1nn[nH]c1C1CCNCC1

$$$$

     RDKit          2D

 12 12  0  0  0  0  0  0  0  0999 V2000
    5.7760    0.0000    0.0000 O   0  0  0  0  0  0  0  0  0  0  0  0
    5.0260   -1.2990    0.0000 C   0  0  0  0  0  0  0  0  0  0  0  0
    3.5260   -1.2990    0.0000 C   0  0  0  0  0  0  0  0  0  0  0  0
    2.7760    0.0000    0.0000 C   0  0  0  0  0  0  0  0  0  0  0  0
    1.2760    0.0000    0.0000 C   0  0  0  0  0  0  0  0  0  0  0  0
    0.3943    1.2135    0.0000 C   0  0  0  0  0  0  0  0  0  0  0  0
   -1.0323    0.7500    0.0000 N   0  0  0  0  0  0  0  0  0  0  0  0
   -1.0323   -0.7500    0.0000 C   0  0  0  0  0  0  0  0  0  0  0  0
    0.3943   -1.2135    0.0000 O   0  0  0  0  0  0  0  0  0  0  0  0
    2.7760   -2.5981    0.0000 N   0  0  0  0  0  0  0  0  0  0  0  0
    3.5260   -3.8971    0.0000 R   0  0  0  0  0  1  0  0  0  1  0  0
    5.7760   -2.5981    0.0000 R   0  0  0  0  0  1  0  0  0  2  0  0
  1  2  2  0
  2  3  1  0
  3  4  1  1
  4  5  1  0
  5  6  2  0
  6  7  1  0
  7  8  2  0
  8  9  1  0
  3 10  1  0
 10 11  1  0
  2 12  1  0
  9  5  1  0
M  END
>  <id>  (296) 
43403fbb-a1cb-4f3e-adcd-5e23a8f0724e

>  <Version>  (296) 
0

>  <Alias>  (296) 
OZL

>  <Type>  (296) 
amino_acid

>  <Smiles>  (296) 
O=C([C@H](Cc1cnco1)N[*:1])[*:2]

>  <ProtectedSmiles>  (296) 
O=C(N[C@@H](Cc1cnco1)C(=O)O)OCC1c2ccccc2-c2ccccc21

>  <CAS>  (296) 
1956434-67-5

>  <User>  (296) 
sevan.h

>  <StereoComment>  (296) 
as drawn

>  <Name>  (296) 
(S)-2-(Fmocamino)-3-(Oxazol-5-yl)propanoic acid

>  <Code>  (296) 
OZL

>  <AliasLowerCase>  (296) 
ozl

>  <LatestVersion>  (296) 
0.0

>  <createdAt>  (296) 
2026-01-14T12:15:15.056Z

>  <updatedAt>  (296) 
2026-01-14T12:15:15.056Z

>  <NumRotatableBonds>  (296) 
4

>  <is_N_methyl>  (296) 
False

>  <is_a_methyl>  (296) 
False

>  <is_alpha_aa>  (296) 
True

>  <is_beta_aa>  (296) 
False

>  <is_S100_aa>  (296) 
False

>  <Murcko_SMILES>  (296) 
c1cocn1

$$$$

     RDKit          2D

 10  9  0  0  0  0  0  0  0  0999 V2000
    6.4952    0.7500    0.0000 C   0  0  0  0  0  0  0  0  0  0  0  0
    5.1962   -0.0000    0.0000 C   0  0  0  0  0  0  0  0  0  0  0  0
    5.1962   -1.5000    0.0000 C   0  0  0  0  0  0  0  0  0  0  0  0
    3.8971    0.7500    0.0000 C   0  0  0  0  0  0  0  0  0  0  0  0
    2.5981   -0.0000    0.0000 C   0  0  0  0  0  0  0  0  0  0  0  0
    1.2990    0.7500    0.0000 N   0  0  0  0  0  0  0  0  0  0  0  0
    0.0000    0.0000    0.0000 R   0  0  0  0  0  1  0  0  0  1  0  0
    3.8971    2.2500    0.0000 C   0  0  0  0  0  0  0  0  0  0  0  0
    2.5981    3.0000    0.0000 O   0  0  0  0  0  0  0  0  0  0  0  0
    5.1962    3.0000    0.0000 R   0  0  0  0  0  1  0  0  0  2  0  0
  1  2  1  0
  2  3  1  0
  2  4  1  0
  4  5  1  6
  5  6  1  0
  6  7  1  0
  4  8  1  0
  8  9  2  0
  8 10  1  0
M  END
>  <id>  (297) 
8558ced3-c102-411c-97be-b8f96f53b338

>  <Version>  (297) 
0

>  <Alias>  (297) 
R-B2-hVal

>  <Type>  (297) 
amino_acid

>  <Smiles>  (297) 
CC(C)[C@H](CN[*:1])C(=O)[*:2]

>  <ProtectedSmiles>  (297) 
CC(C)[C@H](CNC(=O)OCC1c2ccccc2-c2ccccc21)C(=O)O

>  <CAS>  (297) 
501331-02-8

>  <User>  (297) 
emile.b

>  <StereoComment>  (297) 
as drawn

>  <Name>  (297) 
Fmoc-S-beta2-homoValine-OH

>  <Code>  (297) 
R-B2-hVal

>  <AliasLowerCase>  (297) 
r-b2-hval

>  <LatestVersion>  (297) 
0.0

>  <createdAt>  (297) 
2026-01-14T11:34:37.175Z

>  <updatedAt>  (297) 
2026-01-14T11:34:37.175Z

>  <NumRotatableBonds>  (297) 
4

>  <is_N_methyl>  (297) 
False

>  <is_a_methyl>  (297) 
False

>  <is_alpha_aa>  (297) 
False

>  <is_beta_aa>  (297) 
True

>  <is_S100_aa>  (297) 
False

>  <Murcko_SMILES>  (297) 


$$$$

     RDKit          2D

 14 14  0  0  0  0  0  0  0  0999 V2000
    3.0000    0.0000    0.0000 C   0  0  0  0  0  0  0  0  0  0  0  0
    1.5000    0.0000    0.0000 C   0  0  0  0  0  0  0  0  0  0  0  0
    0.7500   -1.2990    0.0000 C   0  0  0  0  0  0  0  0  0  0  0  0
   -0.7500   -1.2990    0.0000 C   0  0  0  0  0  0  0  0  0  0  0  0
   -1.5000    0.0000    0.0000 C   0  0  0  0  0  0  0  0  0  0  0  0
   -3.0000    0.0000    0.0000 C   0  0  0  0  0  0  0  0  0  0  0  0
   -3.7500    1.2990    0.0000 C   0  0  0  0  0  0  0  0  0  0  0  0
   -3.0000    2.5981    0.0000 N   0  0  0  0  0  0  0  0  0  0  0  0
   -3.7500    3.8971    0.0000 R   0  0  0  0  0  1  0  0  0  1  0  0
   -5.2500    1.2990    0.0000 C   0  0  0  0  0  0  0  0  0  0  0  0
   -6.0000   -0.0000    0.0000 O   0  0  0  0  0  0  0  0  0  0  0  0
   -6.0000    2.5981    0.0000 R   0  0  0  0  0  1  0  0  0  2  0  0
   -0.7500    1.2990    0.0000 C   0  0  0  0  0  0  0  0  0  0  0  0
    0.7500    1.2990    0.0000 C   0  0  0  0  0  0  0  0  0  0  0  0
  1  2  1  0
  2  3  2  0
  3  4  1  0
  4  5  2  0
  5  6  1  0
  7  6  1  1
  7  8  1  0
  8  9  1  0
  7 10  1  0
 10 11  2  0
 10 12  1  0
  5 13  1  0
 13 14  2  0
 14  2  1  0
M  END
>  <id>  (298) 
7cf8c07b-b8c8-4d45-b365-57796a84c43e

>  <Version>  (298) 
0

>  <Alias>  (298) 
4MePhe

>  <Type>  (298) 
amino_acid

>  <Smiles>  (298) 
Cc1ccc(C[C@H](N[*:1])C(=O)[*:2])cc1

>  <ProtectedSmiles>  (298) 
Cc1ccc(C[C@H](NC(=O)OCC2c3ccccc3-c3ccccc32)C(=O)O)cc1

>  <CAS>  (298) 
199006-54-7

>  <User>  (298) 
angelica.l

>  <StereoComment>  (298) 
as drawn

>  <Name>  (298) 
Fmoc-Phe(4-Me)-OH

>  <Code>  (298) 
4MePhe

>  <AliasLowerCase>  (298) 
4mephe

>  <LatestVersion>  (298) 
0.0

>  <createdAt>  (298) 
2026-01-14T11:35:45.801Z

>  <updatedAt>  (298) 
2026-01-14T11:35:45.801Z

>  <NumRotatableBonds>  (298) 
4

>  <is_N_methyl>  (298) 
False

>  <is_a_methyl>  (298) 
False

>  <is_alpha_aa>  (298) 
True

>  <is_beta_aa>  (298) 
False

>  <is_S100_aa>  (298) 
False

>  <Murcko_SMILES>  (298) 
c1ccccc1

$$$$

     RDKit          2D

 12 12  0  0  0  0  0  0  0  0999 V2000
    3.7500    1.2990    0.0000 O   0  0  0  0  0  0  0  0  0  0  0  0
    3.0000    0.0000    0.0000 C   0  0  0  0  0  0  0  0  0  0  0  0
    1.5000    0.0000    0.0000 C   0  0  0  0  0  0  0  0  0  0  0  0
    0.7500   -1.2990    0.0000 C   0  0  0  0  0  0  0  0  0  0  0  0
   -0.7500   -1.2990    0.0000 C   0  0  0  0  0  0  0  0  0  0  0  0
   -1.5000    0.0000    0.0000 C   0  0  0  0  0  0  0  0  0  0  0  0
   -3.0000    0.0000    0.0000 C   0  0  0  0  0  0  0  0  0  0  0  0
   -3.7500    1.2990    0.0000 N   0  0  0  0  0  0  0  0  0  0  0  0
   -5.2500    1.2990    0.0000 R   0  0  0  0  0  1  0  0  0  1  0  0
   -0.7500    1.2990    0.0000 C   0  0  0  0  0  0  0  0  0  0  0  0
    0.7500    1.2990    0.0000 N   0  0  0  0  0  0  0  0  0  0  0  0
    3.7500   -1.2990    0.0000 R   0  0  0  0  0  1  0  0  0  2  0  0
  1  2  2  0
  2  3  1  0
  3  4  2  0
  4  5  1  0
  5  6  2  0
  6  7  1  0
  7  8  1  0
  8  9  1  0
  6 10  1  0
 10 11  2  0
  2 12  1  0
 11  3  1  0
M  END
>  <id>  (299) 
fc1166ac-957a-401d-ad05-02bccde326e0

>  <Version>  (299) 
0

>  <Alias>  (299) 
2Pyr2CA

>  <Type>  (299) 
amino_acid

>  <Smiles>  (299) 
O=C(c1ccc(CN[*:1])cn1)[*:2]

>  <ProtectedSmiles>  (299) 
O=C(NCc1ccc(C(=O)O)nc1)OCC1c2ccccc2-c2ccccc21

>  <CAS>  (299) 
503471-24-7

>  <User>  (299) 
gontran.s

>  <StereoComment>  (299) 
as drawn

>  <Name>  (299) 
2-Pyridinecarboxylic acid, 5-[[[(9H-fluoren-9-ylmethoxy)carbonyl]amino]methyl]-

>  <Code>  (299) 
2Pyr2CA

>  <AliasLowerCase>  (299) 
2pyr2ca

>  <LatestVersion>  (299) 
0.0

>  <createdAt>  (299) 
2026-01-14T11:38:39.003Z

>  <updatedAt>  (299) 
2026-01-14T11:38:39.003Z

>  <NumRotatableBonds>  (299) 
3

>  <is_N_methyl>  (299) 
False

>  <is_a_methyl>  (299) 
False

>  <is_alpha_aa>  (299) 
False

>  <is_beta_aa>  (299) 
False

>  <is_S100_aa>  (299) 
False

>  <Murcko_SMILES>  (299) 
c1ccncc1

$$$$

     RDKit          2D

 10 10  0  0  0  0  0  0  0  0999 V2000
    3.7500    1.2990    0.0000 O   0  0  0  0  0  0  0  0  0  0  0  0
    3.0000    0.0000    0.0000 C   0  0  0  0  0  0  0  0  0  0  0  0
    1.5000    0.0000    0.0000 C   0  0  0  0  0  0  0  0  0  0  0  0
    0.7500   -1.2990    0.0000 C   0  0  0  0  0  0  0  0  0  0  0  0
   -0.7500   -1.2990    0.0000 O   0  0  0  0  0  0  0  0  0  0  0  0
   -1.5000    0.0000    0.0000 C   0  0  0  0  0  0  0  0  0  0  0  0
   -0.7500    1.2990    0.0000 C   0  0  0  0  0  0  0  0  0  0  0  0
    0.7500    1.2990    0.0000 N   0  0  0  0  0  0  0  0  0  0  0  0
    1.5000    2.5981    0.0000 R   0  0  0  0  0  1  0  0  0  1  0  0
    3.7500   -1.2990    0.0000 R   0  0  0  0  0  1  0  0  0  2  0  0
  1  2  2  0
  3  2  1  6
  3  4  1  0
  4  5  1  0
  5  6  1  0
  6  7  1  0
  7  8  1  0
  8  9  1  0
  2 10  1  0
  8  3  1  0
M  END
>  <id>  (300) 
4be9bfd8-f0a9-469e-943f-0d7bf0b477e9

>  <Version>  (300) 
0

>  <Alias>  (300) 
S-3Morph

>  <Type>  (300) 
amino_acid

>  <Smiles>  (300) 
O=C([C@@H]1COCCN1[*:1])[*:2]

>  <ProtectedSmiles>  (300) 
O=C(O)[C@@H]1COCCN1C(=O)OCC1c2ccccc2-c2ccccc21

>  <CAS>  (300) 
281655-37-6

>  <User>  (300) 
Sevan.habeshian@orbismedicines.com

>  <StereoComment>  (300) 
as drawn

>  <Name>  (300) 
N/A

>  <Code>  (300) 
S-3Morph

>  <AliasLowerCase>  (300) 
s-3morph

>  <LatestVersion>  (300) 
0.0

>  <createdAt>  (300) 
2026-02-13T09:56:36.358Z

>  <updatedAt>  (300) 
2026-02-13T09:56:36.358Z

>  <NumRotatableBonds>  (300) 
1

>  <is_N_methyl>  (300) 
False

>  <is_a_methyl>  (300) 
False

>  <is_alpha_aa>  (300) 
True

>  <is_beta_aa>  (300) 
False

>  <is_S100_aa>  (300) 
False

>  <Murcko_SMILES>  (300) 
C1COCCN1

$$$$

     RDKit          2D

 13 13  0  0  0  0  0  0  0  0999 V2000
    3.0000   -2.5981    0.0000 O   0  0  0  0  0  0  0  0  0  0  0  0
    3.7500   -1.2990    0.0000 C   0  0  0  0  0  0  0  0  0  0  0  0
    3.0000    0.0000    0.0000 C   0  0  0  0  0  0  0  0  0  0  0  0
    3.7500    1.2990    0.0000 N   0  0  0  0  0  0  0  0  0  0  0  0
    5.2500    1.2990    0.0000 R   0  0  0  0  0  1  0  0  0  1  0  0
    1.5000    0.0000    0.0000 C   0  0  0  0  0  0  0  0  0  0  0  0
    0.7500   -1.2990    0.0000 C   0  0  0  0  0  0  0  0  0  0  0  0
   -0.7500   -1.2990    0.0000 C   0  0  0  0  0  0  0  0  0  0  0  0
   -1.5000    0.0000    0.0000 C   0  0  0  0  0  0  0  0  0  0  0  0
   -0.7500    1.2990    0.0000 C   0  0  0  0  0  0  0  0  0  0  0  0
    0.7500    1.2990    0.0000 C   0  0  0  0  0  0  0  0  0  0  0  0
    1.5000    2.5981    0.0000 Cl  0  0  0  0  0  0  0  0  0  0  0  0
    5.2500   -1.2990    0.0000 R   0  0  0  0  0  1  0  0  0  2  0  0
  1  2  2  0
  2  3  1  0
  3  4  1  6
  4  5  1  0
  3  6  1  0
  6  7  2  0
  7  8  1  0
  8  9  2  0
  9 10  1  0
 10 11  2  0
 11 12  1  0
  2 13  1  0
 11  6  1  0
M  END
>  <id>  (301) 
964a56c8-fb19-426e-8970-de94d1cbfa27

>  <Version>  (301) 
0

>  <Alias>  (301) 
2ClPhg

>  <Type>  (301) 
amino_acid

>  <Smiles>  (301) 
O=C([C@@H](N[*:1])c1ccccc1Cl)[*:2]

>  <ProtectedSmiles>  (301) 
O=C(N[C@H](C(=O)O)c1ccccc1Cl)OCC1c2ccccc2-c2ccccc21

>  <CAS>  (301) 
1260608-83-0

>  <User>  (301) 
mischa.s

>  <StereoComment>  (301) 
as drawn

>  <Name>  (301) 
N-Fmoc-(S)-2-amino-2-(2-chlorophenyl)acetic acid

>  <Code>  (301) 
2ClPhg

>  <AliasLowerCase>  (301) 
2clphg

>  <LatestVersion>  (301) 
0.0

>  <createdAt>  (301) 
2026-01-14T11:37:54.770Z

>  <updatedAt>  (301) 
2026-01-14T11:37:54.770Z

>  <NumRotatableBonds>  (301) 
3

>  <is_N_methyl>  (301) 
False

>  <is_a_methyl>  (301) 
False

>  <is_alpha_aa>  (301) 
True

>  <is_beta_aa>  (301) 
False

>  <is_S100_aa>  (301) 
False

>  <Murcko_SMILES>  (301) 
c1ccccc1

$$$$

     RDKit          2D

 13 13  0  0  0  0  0  0  0  0999 V2000
    6.0000    0.0000    0.0000 O   0  0  0  0  0  0  0  0  0  0  0  0
    5.2500   -1.2990    0.0000 C   0  0  0  0  0  0  0  0  0  0  0  0
    3.7500   -1.2990    0.0000 C   0  0  0  0  0  0  0  0  0  0  0  0
    3.0000    0.0000    0.0000 C   0  0  0  0  0  0  0  0  0  0  0  0
    3.7500    1.2990    0.0000 N   0  0  0  0  0  0  0  0  0  0  0  0
    5.2500    1.2990    0.0000 R   0  0  0  0  0  1  0  0  0  1  0  0
    1.5000    0.0000    0.0000 C   0  0  0  0  0  0  0  0  0  0  0  0
    0.7500   -1.2990    0.0000 C   0  0  0  0  0  0  0  0  0  0  0  0
   -0.7500   -1.2990    0.0000 C   0  0  0  0  0  0  0  0  0  0  0  0
   -1.5000    0.0000    0.0000 C   0  0  0  0  0  0  0  0  0  0  0  0
   -0.7500    1.2990    0.0000 C   0  0  0  0  0  0  0  0  0  0  0  0
    0.7500    1.2990    0.0000 C   0  0  0  0  0  0  0  0  0  0  0  0
    6.0000   -2.5981    0.0000 R   0  0  0  0  0  1  0  0  0  2  0  0
  1  2  2  0
  2  3  1  0
  4  3  1  1
  4  5  1  0
  5  6  1  0
  4  7  1  0
  7  8  1  0
  8  9  1  0
  9 10  1  0
 10 11  1  0
 11 12  1  0
  2 13  1  0
 12  7  1  0
M  END
>  <id>  (302) 
9c5061ff-ea9a-4c6f-a266-030f81325bb9

>  <Version>  (302) 
0

>  <Alias>  (302) 
BChg

>  <Type>  (302) 
amino_acid

>  <Smiles>  (302) 
O=C(C[C@H](N[*:1])C1CCCCC1)[*:2]

>  <ProtectedSmiles>  (302) 
O=C(O)C[C@H](NC(=O)OCC1c2ccccc2-c2ccccc21)C1CCCCC1

>  <CAS>  (302) 
1260614-86-5

>  <User>  (302) 
alice.granger@orbismedicines.com

>  <StereoComment>  (302) 
as drawn

>  <Name>  (302) 
(3S)-3-cyclohexyl-3-({[(9H-fluoren-9-yl)methoxy]carbonyl}amino)propanoic acid

>  <Code>  (302) 
BChg

>  <AliasLowerCase>  (302) 
bchg

>  <LatestVersion>  (302) 
0.0

>  <createdAt>  (302) 
2026-03-11T10:37:04.550Z

>  <updatedAt>  (302) 
2026-03-11T10:37:04.550Z

>  <NumRotatableBonds>  (302) 
4

>  <is_N_methyl>  (302) 
False

>  <is_a_methyl>  (302) 
False

>  <is_alpha_aa>  (302) 
False

>  <is_beta_aa>  (302) 
True

>  <is_S100_aa>  (302) 
False

>  <Murcko_SMILES>  (302) 
C1CCCCC1

$$$$

     RDKit          2D

 12 12  0  0  0  0  0  0  0  0999 V2000
    5.7760    0.0000    0.0000 O   0  0  0  0  0  0  0  0  0  0  0  0
    5.0260   -1.2990    0.0000 C   0  0  0  0  0  0  0  0  0  0  0  0
    3.5260   -1.2990    0.0000 C   0  0  0  0  0  0  0  0  0  0  0  0
    2.7760    0.0000    0.0000 C   0  0  0  0  0  0  0  0  0  0  0  0
    1.2760    0.0000    0.0000 C   0  0  0  0  0  0  0  0  0  0  0  0
    0.3943    1.2135    0.0000 C   0  0  0  0  0  0  0  0  0  0  0  0
   -1.0323    0.7500    0.0000 N   0  0  0  0  0  0  0  0  0  0  0  0
   -1.0323   -0.7500    0.0000 C   0  0  0  0  0  0  0  0  0  0  0  0
    0.3943   -1.2135    0.0000 N   0  0  0  0  0  0  0  0  0  0  0  0
    2.7760   -2.5981    0.0000 N   0  0  0  0  0  0  0  0  0  0  0  0
    3.5260   -3.8971    0.0000 R   0  0  0  0  0  1  0  0  0  1  0  0
    5.7760   -2.5981    0.0000 R   0  0  0  0  0  1  0  0  0  2  0  0
  1  2  2  0
  2  3  1  0
  3  4  1  6
  4  5  1  0
  5  6  2  0
  6  7  1  0
  7  8  2  0
  8  9  1  0
  3 10  1  0
 10 11  1  0
  2 12  1  0
  9  5  1  0
M  END
>  <id>  (303) 
077f2764-d75a-4440-9aee-732d3660222a

>  <Version>  (303) 
0

>  <Alias>  (303) 
D-His

>  <Type>  (303) 
amino_acid

>  <Smiles>  (303) 
O=C([C@@H](Cc1cnc[nH]1)N[*:1])[*:2]

>  <ProtectedSmiles>  (303) 
O=C(N[C@H](Cc1cn(C(c2ccccc2)(c2ccccc2)c2ccccc2)cn1)C(=O)O)OCC1c2ccccc2-c2ccccc21

>  <CAS>  (303) 
135610-90-1

>  <User>  (303) 
sevan.h

>  <StereoComment>  (303) 
as drawn

>  <Name>  (303) 
Fmoc-D-His(Trt)-OH

>  <Code>  (303) 
D-His

>  <AliasLowerCase>  (303) 
d-his

>  <LatestVersion>  (303) 
0.0

>  <createdAt>  (303) 
2026-01-14T12:17:11.969Z

>  <updatedAt>  (303) 
2026-01-14T12:17:11.969Z

>  <NumRotatableBonds>  (303) 
4

>  <is_N_methyl>  (303) 
False

>  <is_a_methyl>  (303) 
False

>  <is_alpha_aa>  (303) 
True

>  <is_beta_aa>  (303) 
False

>  <is_S100_aa>  (303) 
False

>  <Murcko_SMILES>  (303) 
c1c[nH]cn1

$$$$

     RDKit          2D

 12 13  0  0  0  0  0  0  0  0999 V2000
    3.3107    1.2990    0.0000 O   0  0  0  0  0  0  0  0  0  0  0  0
    2.5607    0.0000    0.0000 C   0  0  0  0  0  0  0  0  0  0  0  0
    1.0607    0.0000    0.0000 C   0  0  0  0  0  0  0  0  0  0  0  0
   -0.0000   -1.0607    0.0000 C   0  0  0  0  0  0  0  0  0  0  0  0
   -1.0607    0.0000    0.0000 C   0  0  0  0  0  0  0  0  0  0  0  0
   -2.1213    1.0607    0.0000 C   0  0  0  0  0  0  0  0  0  0  0  0
   -3.1820    0.0000    0.0000 C   0  0  0  0  0  0  0  0  0  0  0  0
   -4.6820   -0.0000    0.0000 N   0  0  0  0  0  0  0  0  0  0  0  0
   -5.4320    1.2990    0.0000 R   0  0  0  0  0  1  0  0  0  1  0  0
   -2.1213   -1.0607    0.0000 C   0  0  0  0  0  0  0  0  0  0  0  0
    0.0000    1.0607    0.0000 C   0  0  0  0  0  0  0  0  0  0  0  0
    3.3107   -1.2990    0.0000 R   0  0  0  0  0  1  0  0  0  2  0  0
  1  2  2  0
  2  3  1  0
  3  4  1  0
  4  5  1  0
  5  6  1  0
  6  7  1  0
  7  8  1  0
  8  9  1  0
  7 10  1  0
  5 11  1  0
  2 12  1  0
 11  3  1  0
 10  5  1  0
M  END
>  <id>  (304) 
1ee98a5e-f558-4269-9a7d-c70c73d8ea8c

>  <Version>  (304) 
0

>  <Alias>  (304) 
spiro-3,3-Hep

>  <Type>  (304) 
amino_acid

>  <Smiles>  (304) 
O=C(C1CC2(CC(N[*:1])C2)C1)[*:2]

>  <ProtectedSmiles>  (304) 
O=C(NC1CC2(C1)CC(C(=O)O)C2)OCC1c2ccccc2-c2ccccc21

>  <CAS>  (304) 
2592227-94-4

>  <User>  (304) 
emile.b

>  <StereoComment>  (304) 
as drawn

>  <Name>  (304) 
2-(9H-fluoren-9-ylmethoxycarbonylamino)spiro[3.3]heptane-6-carboxylic acidÂ 

>  <Code>  (304) 
spiro-3,3-Hep

>  <AliasLowerCase>  (304) 
spiro-3,3-hep

>  <LatestVersion>  (304) 
0.0

>  <createdAt>  (304) 
2026-01-14T11:33:38.763Z

>  <updatedAt>  (304) 
2026-01-14T11:33:38.763Z

>  <NumRotatableBonds>  (304) 
2

>  <is_N_methyl>  (304) 
False

>  <is_a_methyl>  (304) 
False

>  <is_alpha_aa>  (304) 
False

>  <is_beta_aa>  (304) 
False

>  <is_S100_aa>  (304) 
False

>  <Murcko_SMILES>  (304) 
C1CC2(C1)CCC2

$$$$

     RDKit          2D

 16 17  0  0  0  0  0  0  0  0999 V2000
    0.5271    8.0861    0.0000 O   0  0  0  0  0  0  0  0  0  0  0  0
    1.6418    7.0824    0.0000 C   0  0  0  0  0  0  0  0  0  0  0  0
    1.3299    5.6152    0.0000 C   0  0  0  0  0  0  0  0  0  0  0  0
   -0.0967    5.1517    0.0000 C   0  0  0  0  0  0  0  0  0  0  0  0
   -0.4086    3.6844    0.0000 C   0  0  0  0  0  0  0  0  0  0  0  0
   -1.8351    3.2209    0.0000 C   0  0  0  0  0  0  0  0  0  0  0  0
   -2.1470    1.7537    0.0000 C   0  0  0  0  0  0  0  0  0  0  0  0
   -1.0323    0.7500    0.0000 C   0  0  0  0  0  0  0  0  0  0  0  0
    0.3943    1.2135    0.0000 C   0  0  0  0  0  0  0  0  0  0  0  0
    0.7062    2.6807    0.0000 C   0  0  0  0  0  0  0  0  0  0  0  0
    1.2760    0.0000    0.0000 O   0  0  0  0  0  0  0  0  0  0  0  0
    0.3943   -1.2135    0.0000 C   0  0  0  0  0  0  0  0  0  0  0  0
   -1.0323   -0.7500    0.0000 O   0  0  0  0  0  0  0  0  0  0  0  0
    2.4446    4.6115    0.0000 N   0  0  0  0  0  0  0  0  0  0  0  0
    3.8712    5.0750    0.0000 R   0  0  0  0  0  1  0  0  0  1  0  0
    3.0684    7.5459    0.0000 R   0  0  0  0  0  1  0  0  0  2  0  0
  1  2  2  0
  2  3  1  0
  3  4  1  0
  4  5  1  0
  5  6  2  0
  6  7  1  0
  7  8  2  0
  8  9  1  0
  9 10  2  0
  9 11  1  0
 11 12  1  0
 12 13  1  0
  3 14  1  0
 14 15  1  0
  2 16  1  0
 10  5  1  0
 13  8  1  0
M  END
>  <id>  (305) 
188c23f0-f944-412c-92c8-e967fb882f0b

>  <Version>  (305) 
0

>  <Alias>  (305) 
rac3(1,3Dod-5yl)2APA

>  <Type>  (305) 
amino_acid

>  <Smiles>  (305) 
O=C(C(Cc1ccc2c(c1)OCO2)N[*:1])[*:2]

>  <ProtectedSmiles>  (305) 
O=C(NC(Cc1ccc2c(c1)OCO2)C(=O)O)OCC1c2ccccc2-c2ccccc21

>  <CAS>  (305) 
1702522-80-2

>  <User>  (305) 
mischa.s

>  <StereoComment>  (305) 
as drawn

>  <Name>  (305) 
3-(1,3-dioxaindan-5-yl)-2-({[(9H-fluoren-9-yl)methoxy]carbonyl}amino)propanoic acid

>  <Code>  (305) 
rac3(1,3Dod-5yl)2APA

>  <AliasLowerCase>  (305) 
rac3(1,3dod-5yl)2apa

>  <LatestVersion>  (305) 
0.0

>  <createdAt>  (305) 
2026-01-14T11:35:29.827Z

>  <updatedAt>  (305) 
2026-01-14T11:35:29.827Z

>  <NumRotatableBonds>  (305) 
4

>  <is_N_methyl>  (305) 
False

>  <is_a_methyl>  (305) 
False

>  <is_alpha_aa>  (305) 
True

>  <is_beta_aa>  (305) 
False

>  <is_S100_aa>  (305) 
False

>  <Murcko_SMILES>  (305) 
c1ccc2c(c1)OCO2

$$$$

     RDKit          2D

 15 15  0  0  0  0  0  0  0  0999 V2000
    3.7500   -1.2990    0.0000 C   0  0  0  0  0  0  0  0  0  0  0  0
    3.0000    0.0000    0.0000 O   0  0  0  0  0  0  0  0  0  0  0  0
    1.5000    0.0000    0.0000 C   0  0  0  0  0  0  0  0  0  0  0  0
    0.7500   -1.2990    0.0000 C   0  0  0  0  0  0  0  0  0  0  0  0
   -0.7500   -1.2990    0.0000 C   0  0  0  0  0  0  0  0  0  0  0  0
   -1.5000    0.0000    0.0000 C   0  0  0  0  0  0  0  0  0  0  0  0
   -0.7500    1.2990    0.0000 C   0  0  0  0  0  0  0  0  0  0  0  0
    0.7500    1.2990    0.0000 C   0  0  0  0  0  0  0  0  0  0  0  0
    1.5000    2.5981    0.0000 C   0  0  0  0  0  0  0  0  0  0  0  0
    3.0000    2.5981    0.0000 C   0  0  0  0  0  0  0  0  0  0  0  0
    3.7500    1.2990    0.0000 N   0  0  0  0  0  0  0  0  0  0  0  0
    5.2500    1.2990    0.0000 R   0  0  0  0  0  1  0  0  0  1  0  0
    3.7500    3.8971    0.0000 C   0  0  0  0  0  0  0  0  0  0  0  0
    3.0000    5.1962    0.0000 O   0  0  0  0  0  0  0  0  0  0  0  0
    5.2500    3.8971    0.0000 R   0  0  0  0  0  1  0  0  0  2  0  0
  1  2  1  0
  2  3  1  0
  3  4  2  0
  4  5  1  0
  5  6  2  0
  6  7  1  0
  7  8  2  0
  8  9  1  0
 10  9  1  1
 10 11  1  0
 11 12  1  0
 10 13  1  0
 13 14  2  0
 13 15  1  0
  8  3  1  0
M  END
>  <id>  (306) 
eb2a1b23-ce5e-4f0b-91c7-24e05a3c7a31

>  <Version>  (306) 
0

>  <Alias>  (306) 
2MeOPhe

>  <Type>  (306) 
amino_acid

>  <Smiles>  (306) 
COc1ccccc1C[C@H](N[*:1])C(=O)[*:2]

>  <ProtectedSmiles>  (306) 
COc1ccccc1C[C@H](NC(=O)OCC1c2ccccc2-c2ccccc21)C(=O)O

>  <CAS>  (306) 
206060-41-5

>  <User>  (306) 
angelica.l

>  <StereoComment>  (306) 
as drawn

>  <Name>  (306) 
Fmoc-2-methoxy-l-phenylalanine

>  <Code>  (306) 
2MeOPhe

>  <AliasLowerCase>  (306) 
2meophe

>  <LatestVersion>  (306) 
0.0

>  <createdAt>  (306) 
2026-01-14T11:34:26.055Z

>  <updatedAt>  (306) 
2026-01-14T11:34:26.055Z

>  <NumRotatableBonds>  (306) 
5

>  <is_N_methyl>  (306) 
False

>  <is_a_methyl>  (306) 
False

>  <is_alpha_aa>  (306) 
True

>  <is_beta_aa>  (306) 
False

>  <is_S100_aa>  (306) 
False

>  <Murcko_SMILES>  (306) 
c1ccccc1

$$$$

     RDKit          2D

 15 15  0  0  0  0  0  0  0  0999 V2000
    3.5260    1.2990    0.0000 O   0  0  0  0  0  0  0  0  0  0  0  0
    2.7760    0.0000    0.0000 C   0  0  0  0  0  0  0  0  0  0  0  0
    3.5260   -1.2990    0.0000 C   0  0  0  0  0  0  0  0  0  0  0  0
    5.0260   -1.2990    0.0000 C   0  0  0  0  0  0  0  0  0  0  0  0
    5.7760   -2.5981    0.0000 C   0  0  0  0  0  0  0  0  0  0  0  0
    5.0260   -3.8971    0.0000 N   0  0  0  0  0  0  0  0  0  0  0  0
    5.7760   -5.1962    0.0000 R   0  0  0  0  0  1  0  0  0  1  0  0
    7.2760   -2.5981    0.0000 C   0  0  0  0  0  0  0  0  0  0  0  0
    8.0260   -1.2990    0.0000 O   0  0  0  0  0  0  0  0  0  0  0  0
    8.0260   -3.8971    0.0000 R   0  0  0  0  0  1  0  0  0  2  0  0
    1.2760    0.0000    0.0000 N   0  0  0  0  0  0  0  0  0  0  0  0
    0.3943    1.2135    0.0000 C   0  0  0  0  0  0  0  0  0  0  0  0
   -1.0323    0.7500    0.0000 C   0  0  0  0  0  0  0  0  0  0  0  0
   -1.0323   -0.7500    0.0000 C   0  0  0  0  0  0  0  0  0  0  0  0
    0.3943   -1.2135    0.0000 C   0  0  0  0  0  0  0  0  0  0  0  0
  1  2  2  0
  2  3  1  0
  3  4  1  0
  5  4  1  1
  5  6  1  0
  6  7  1  0
  5  8  1  0
  8  9  2  0
  8 10  1  0
  2 11  1  0
 11 12  1  0
 12 13  1  0
 13 14  1  0
 14 15  1  0
 15 11  1  0
M  END
>  <id>  (307) 
fd687ef0-67c7-4ddb-b47f-66936fbe161a

>  <Version>  (307) 
0

>  <Alias>  (307) 
Gln(Pyr)

>  <Type>  (307) 
amino_acid

>  <Smiles>  (307) 
O=C(CC[C@H](N[*:1])C(=O)[*:2])N1CCCC1

>  <ProtectedSmiles>  (307) 
O=C(N[C@@H](CCC(=O)N1CCCC1)C(=O)O)OCC1c2ccccc2-c2ccccc21

>  <CAS>  (307) 
2559759-52-1

>  <User>  (307) 
sevan.h

>  <StereoComment>  (307) 
as drawn

>  <Name>  (307) 
Fmoc-Gln(Pyr)-OH

>  <Code>  (307) 
Gln(Pyr)

>  <AliasLowerCase>  (307) 
gln(pyr)

>  <LatestVersion>  (307) 
0.0

>  <createdAt>  (307) 
2026-01-14T12:15:18.011Z

>  <updatedAt>  (307) 
2026-01-14T12:15:18.011Z

>  <NumRotatableBonds>  (307) 
5

>  <is_N_methyl>  (307) 
False

>  <is_a_methyl>  (307) 
False

>  <is_alpha_aa>  (307) 
True

>  <is_beta_aa>  (307) 
False

>  <is_S100_aa>  (307) 
False

>  <Murcko_SMILES>  (307) 
C1CCNC1

$$$$

     RDKit          2D

 14 14  0  0  0  0  0  0  0  0999 V2000
    6.0000    0.0000    0.0000 O   0  0  0  0  0  0  0  0  0  0  0  0
    5.2500   -1.2990    0.0000 C   0  0  0  0  0  0  0  0  0  0  0  0
    3.7500   -1.2990    0.0000 C   0  0  0  0  0  0  0  0  0  0  0  0
    3.0000    0.0000    0.0000 C   0  0  0  0  0  0  0  0  0  0  0  0
    1.5000    0.0000    0.0000 C   0  0  0  0  0  0  0  0  0  0  0  0
    0.7500   -1.2990    0.0000 C   0  0  0  0  0  0  0  0  0  0  0  0
   -0.7500   -1.2990    0.0000 C   0  0  0  0  0  0  0  0  0  0  0  0
   -1.5000    0.0000    0.0000 C   0  0  0  0  0  0  0  0  0  0  0  0
   -0.7500    1.2990    0.0000 C   0  0  0  0  0  0  0  0  0  0  0  0
    0.7500    1.2990    0.0000 C   0  0  0  0  0  0  0  0  0  0  0  0
    1.5000    2.5981    0.0000 Cl  0  0  0  0  0  0  0  0  0  0  0  0
    3.0000   -2.5981    0.0000 N   0  0  0  0  0  0  0  0  0  0  0  0
    3.7500   -3.8971    0.0000 R   0  0  0  0  0  1  0  0  0  1  0  0
    6.0000   -2.5981    0.0000 R   0  0  0  0  0  1  0  0  0  2  0  0
  1  2  2  0
  2  3  1  0
  3  4  1  6
  4  5  1  0
  5  6  2  0
  6  7  1  0
  7  8  2  0
  8  9  1  0
  9 10  2  0
 10 11  1  0
  3 12  1  0
 12 13  1  0
  2 14  1  0
 10  5  1  0
M  END
>  <id>  (308) 
0c424250-aa90-4282-87d8-465116b3931b

>  <Version>  (308) 
0

>  <Alias>  (308) 
2Cl-D-Phe

>  <Type>  (308) 
amino_acid

>  <Smiles>  (308) 
O=C([C@@H](Cc1ccccc1Cl)N[*:1])[*:2]

>  <ProtectedSmiles>  (308) 
O=C(N[C@H](Cc1ccccc1Cl)C(=O)O)OCC1c2ccccc2-c2ccccc21

>  <CAS>  (308) 
205526-22-3

>  <User>  (308) 
gontran.s

>  <StereoComment>  (308) 
as drawn

>  <Name>  (308) 
Fmoc-D-Phe(2-Cl)-OH

>  <Code>  (308) 
2Cl-D-Phe

>  <AliasLowerCase>  (308) 
2cl-d-phe

>  <LatestVersion>  (308) 
0.0

>  <createdAt>  (308) 
2026-01-14T11:37:01.914Z

>  <updatedAt>  (308) 
2026-01-14T11:37:01.914Z

>  <NumRotatableBonds>  (308) 
4

>  <is_N_methyl>  (308) 
False

>  <is_a_methyl>  (308) 
False

>  <is_alpha_aa>  (308) 
True

>  <is_beta_aa>  (308) 
False

>  <is_S100_aa>  (308) 
False

>  <Murcko_SMILES>  (308) 
c1ccccc1

$$$$

     RDKit          2D

 10  9  0  0  0  0  0  0  0  0999 V2000
    6.4952    5.2500    0.0000 C   0  0  0  0  0  0  0  0  0  0  0  0
    5.1962    4.5000    0.0000 C   0  0  0  0  0  0  0  0  0  0  0  0
    5.1962    3.0000    0.0000 C   0  0  0  0  0  0  0  0  0  0  0  0
    3.8971    2.2500    0.0000 C   0  0  0  0  0  0  0  0  0  0  0  0
    3.8971    0.7500    0.0000 N   0  0  0  0  0  0  0  0  0  0  0  0
    2.5981   -0.0000    0.0000 C   0  0  0  0  0  0  0  0  0  0  0  0
    1.2990    0.7500    0.0000 C   0  0  0  0  0  0  0  0  0  0  0  0
    1.2990    2.2500    0.0000 O   0  0  0  0  0  0  0  0  0  0  0  0
    0.0000    0.0000    0.0000 R   0  0  0  0  0  1  0  0  0  2  0  0
    5.1962   -0.0000    0.0000 R   0  0  0  0  0  1  0  0  0  1  0  0
  1  2  1  0
  2  3  1  0
  3  4  1  0
  4  5  1  0
  5  6  1  0
  6  7  1  0
  7  8  2  0
  7  9  1  0
  5 10  1  0
M  END
>  <id>  (309) 
364fbc9b-6f0c-44f6-8f4f-52c53c799a9e

>  <Version>  (309) 
0

>  <Alias>  (309) 
N(butyl)Gly

>  <Type>  (309) 
amino_acid

>  <Smiles>  (309) 
CCCCN(CC(=O)[*:2])[*:1]

>  <ProtectedSmiles>  (309) 
CCCCN(CC(=O)O)C(=O)OCC1c2ccccc2-c2ccccc21

>  <CAS>  (309) 
234442-58-1

>  <User>  (309) 
mischa.s

>  <StereoComment>  (309) 
as drawn

>  <Name>  (309) 
Fmoc-n-(butyl)-glycine

>  <Code>  (309) 
N(butyl)Gly

>  <AliasLowerCase>  (309) 
n(butyl)gly

>  <LatestVersion>  (309) 
0.0

>  <createdAt>  (309) 
2026-01-14T11:33:18.732Z

>  <updatedAt>  (309) 
2026-01-14T11:33:18.732Z

>  <NumRotatableBonds>  (309) 
5

>  <is_N_methyl>  (309) 
False

>  <is_a_methyl>  (309) 
False

>  <is_alpha_aa>  (309) 
True

>  <is_beta_aa>  (309) 
False

>  <is_S100_aa>  (309) 
False

>  <Murcko_SMILES>  (309) 


$$$$

     RDKit          2D

 14 14  0  0  0  0  0  0  0  0999 V2000
    6.0000    0.0000    0.0000 O   0  0  0  0  0  0  0  0  0  0  0  0
    5.2500   -1.2990    0.0000 C   0  0  0  0  0  0  0  0  0  0  0  0
    3.7500   -1.2990    0.0000 C   0  0  0  0  0  0  0  0  0  0  0  0
    3.0000    0.0000    0.0000 C   0  0  0  0  0  0  0  0  0  0  0  0
    1.5000    0.0000    0.0000 C   0  0  0  0  0  0  0  0  0  0  0  0
    0.7500   -1.2990    0.0000 C   0  0  0  0  0  0  0  0  0  0  0  0
   -0.7500   -1.2990    0.0000 C   0  0  0  0  0  0  0  0  0  0  0  0
   -1.5000    0.0000    0.0000 C   0  0  0  0  0  0  0  0  0  0  0  0
   -0.7500    1.2990    0.0000 C   0  0  0  0  0  0  0  0  0  0  0  0
    0.7500    1.2990    0.0000 C   0  0  0  0  0  0  0  0  0  0  0  0
    1.5000    2.5981    0.0000 O   0  0  0  0  0  0  0  0  0  0  0  0
    3.0000   -2.5981    0.0000 N   0  0  0  0  0  0  0  0  0  0  0  0
    3.7500   -3.8971    0.0000 R   0  0  0  0  0  1  0  0  0  1  0  0
    6.0000   -2.5981    0.0000 R   0  0  0  0  0  1  0  0  0  2  0  0
  1  2  2  0
  2  3  1  0
  3  4  1  0
  4  5  1  0
  5  6  2  0
  6  7  1  0
  7  8  2  0
  8  9  1  0
  9 10  2  0
 10 11  1  0
  3 12  1  0
 12 13  1  0
  2 14  1  0
 10  5  1  0
M  END
>  <id>  (310) 
1131a21a-8808-4742-9f8f-1603ed18a6f6

>  <Version>  (310) 
0

>  <Alias>  (310) 
rac-2HOPhe

>  <Type>  (310) 
amino_acid

>  <Smiles>  (310) 
O=C(C(Cc1ccccc1O)N[*:1])[*:2]

>  <ProtectedSmiles>  (310) 
O=C(NC(Cc1ccccc1O)C(=O)O)OCC1c2ccccc2-c2ccccc21

>  <CAS>  (310) 
174879-27-7

>  <User>  (310) 
mischa.s

>  <StereoComment>  (310) 
as drawn

>  <Name>  (310) 
racemic N-[(9H-Fluoren-9-ylmethoxy)carbonyl]-2-hydroxyphenylalanine

>  <Code>  (310) 
rac-2HOPhe

>  <AliasLowerCase>  (310) 
rac-2hophe

>  <LatestVersion>  (310) 
0.0

>  <createdAt>  (310) 
2026-01-14T11:34:19.967Z

>  <updatedAt>  (310) 
2026-01-14T11:34:19.967Z

>  <NumRotatableBonds>  (310) 
4

>  <is_N_methyl>  (310) 
False

>  <is_a_methyl>  (310) 
False

>  <is_alpha_aa>  (310) 
True

>  <is_beta_aa>  (310) 
False

>  <is_S100_aa>  (310) 
False

>  <Murcko_SMILES>  (310) 
c1ccccc1

$$$$

     RDKit          2D

 10  9  0  0  0  0  0  0  0  0999 V2000
    7.7942   -0.0000    0.0000 C   0  0  0  0  0  0  0  0  0  0  0  0
    6.4952    0.7500    0.0000 O   0  0  0  0  0  0  0  0  0  0  0  0
    5.1962   -0.0000    0.0000 C   0  0  0  0  0  0  0  0  0  0  0  0
    3.8971    0.7500    0.0000 C   0  0  0  0  0  0  0  0  0  0  0  0
    2.5981   -0.0000    0.0000 C   0  0  0  0  0  0  0  0  0  0  0  0
    1.2990    0.7500    0.0000 N   0  0  0  0  0  0  0  0  0  0  0  0
    0.0000    0.0000    0.0000 R   0  0  0  0  0  1  0  0  0  1  0  0
    2.5981   -1.5000    0.0000 C   0  0  0  0  0  0  0  0  0  0  0  0
    1.2990   -2.2500    0.0000 O   0  0  0  0  0  0  0  0  0  0  0  0
    3.8971   -2.2500    0.0000 R   0  0  0  0  0  1  0  0  0  2  0  0
  1  2  1  0
  2  3  1  0
  3  4  1  0
  5  4  1  1
  5  6  1  0
  6  7  1  0
  5  8  1  0
  8  9  2  0
  8 10  1  0
M  END
>  <id>  (311) 
d8f96211-729c-46ff-b9c2-5ffe6486ff42

>  <Version>  (311) 
0

>  <Alias>  (311) 
hSer(OMe)

>  <Type>  (311) 
amino_acid

>  <Smiles>  (311) 
COCC[C@H](N[*:1])C(=O)[*:2]

>  <ProtectedSmiles>  (311) 
COCC[C@H](NC(=O)OCC1c2ccccc2-c2ccccc21)C(=O)O

>  <CAS>  (311) 
173212-86-7

>  <User>  (311) 
sevan.h

>  <StereoComment>  (311) 
as drawn

>  <Name>  (311) 
Fmoc-hSer(OMe)-oh

>  <Code>  (311) 
hSer(OMe)

>  <AliasLowerCase>  (311) 
hser(ome)

>  <LatestVersion>  (311) 
0.0

>  <createdAt>  (311) 
2026-01-14T12:15:33.060Z

>  <updatedAt>  (311) 
2026-01-14T12:15:33.060Z

>  <NumRotatableBonds>  (311) 
5

>  <is_N_methyl>  (311) 
False

>  <is_a_methyl>  (311) 
False

>  <is_alpha_aa>  (311) 
True

>  <is_beta_aa>  (311) 
False

>  <is_S100_aa>  (311) 
False

>  <Murcko_SMILES>  (311) 


$$$$

     RDKit          2D

 11 10  0  0  0  0  0  0  0  0999 V2000
    6.4952    2.2500    0.0000 O   0  0  0  0  0  0  0  0  0  0  0  0
    6.4952    0.7500    0.0000 C   0  0  0  0  0  0  0  0  0  0  0  0
    7.7942   -0.0000    0.0000 O   0  0  0  0  0  0  0  0  0  0  0  0
    5.1962   -0.0000    0.0000 C   0  0  0  0  0  0  0  0  0  0  0  0
    3.8971    0.7500    0.0000 C   0  0  0  0  0  0  0  0  0  0  0  0
    2.5981   -0.0000    0.0000 C   0  0  0  0  0  0  0  0  0  0  0  0
    1.2990    0.7500    0.0000 C   0  0  0  0  0  0  0  0  0  0  0  0
    1.2990    2.2500    0.0000 O   0  0  0  0  0  0  0  0  0  0  0  0
    0.0000    0.0000    0.0000 R   0  0  0  0  0  1  0  0  0  2  0  0
    5.1962   -1.5000    0.0000 N   0  0  0  0  0  0  0  0  0  0  0  0
    6.4952   -2.2500    0.0000 R   0  0  0  0  0  1  0  0  0  1  0  0
  1  2  2  0
  2  3  1  0
  2  4  1  0
  4  5  1  1
  5  6  1  0
  6  7  1  0
  7  8  2  0
  7  9  1  0
  4 10  1  0
 10 11  1  0
M  END
>  <id>  (312) 
4afc3942-7d01-419e-a2bb-fbadd24a2fde

>  <Version>  (312) 
0

>  <Alias>  (312) 
GlutBu

>  <Type>  (312) 
amino_acid

>  <Smiles>  (312) 
O=C(O)[C@H](CCC(=O)[*:2])N[*:1]

>  <ProtectedSmiles>  (312) 
CC(C)(C)OC(=O)[C@H](CCC(=O)O)NC(=O)OCC1c2ccccc2-c2ccccc21

>  <CAS>  (312) 
84793-07-7

>  <User>  (312) 
sevan.h

>  <StereoComment>  (312) 
as drawn

>  <Name>  (312) 
Fmoc-Glu-OtBu

>  <Code>  (312) 
GlutBu

>  <AliasLowerCase>  (312) 
glutbu

>  <LatestVersion>  (312) 
0.0

>  <createdAt>  (312) 
2026-01-14T12:16:35.480Z

>  <updatedAt>  (312) 
2026-01-14T12:16:35.480Z

>  <NumRotatableBonds>  (312) 
5

>  <is_N_methyl>  (312) 
False

>  <is_a_methyl>  (312) 
False

>  <is_alpha_aa>  (312) 
False

>  <is_beta_aa>  (312) 
False

>  <is_S100_aa>  (312) 
False

>  <Murcko_SMILES>  (312) 


$$$$

     RDKit          2D

 10 10  0  0  0  0  0  0  0  0999 V2000
    1.7331   -2.5095    0.0000 C   0  0  0  0  0  0  0  0  0  0  0  0
    2.1213   -1.0607    0.0000 O   0  0  0  0  0  0  0  0  0  0  0  0
    1.0607    0.0000    0.0000 C   0  0  0  0  0  0  0  0  0  0  0  0
    2.1213    1.0607    0.0000 C   0  0  0  0  0  0  0  0  0  0  0  0
    1.7331    2.5095    0.0000 O   0  0  0  0  0  0  0  0  0  0  0  0
    3.5702    0.6724    0.0000 R   0  0  0  0  0  1  0  0  0  2  0  0
   -0.0000   -1.0607    0.0000 C   0  0  0  0  0  0  0  0  0  0  0  0
   -1.0607    0.0000    0.0000 N   0  0  0  0  0  0  0  0  0  0  0  0
   -2.5607    0.0000    0.0000 R   0  0  0  0  0  1  0  0  0  1  0  0
    0.0000    1.0607    0.0000 C   0  0  0  0  0  0  0  0  0  0  0  0
  1  2  1  0
  2  3  1  0
  3  4  1  0
  4  5  2  0
  4  6  1  0
  3  7  1  0
  7  8  1  0
  8  9  1  0
  8 10  1  0
 10  3  1  0
M  END
>  <id>  (313) 
aba5dc6a-2172-4d81-9520-f6177fb634c3

>  <Version>  (313) 
0

>  <Alias>  (313) 
rac3MeO-3Azet

>  <Type>  (313) 
amino_acid

>  <Smiles>  (313) 
COC1(C(=O)[*:2])CN([*:1])C1

>  <ProtectedSmiles>  (313) 
COC1(C(=O)O)CN(C(=O)OCC2c3ccccc3-c3ccccc32)C1

>  <CAS>  (313) 
2247107-68-0

>  <User>  (313) 
Sevan.habeshian@orbismedicines.com

>  <StereoComment>  (313) 
as drawn

>  <Name>  (313) 
N/A

>  <Code>  (313) 
rac3MeO-3Azet

>  <AliasLowerCase>  (313) 
rac3meo-3azet

>  <LatestVersion>  (313) 
0.0

>  <createdAt>  (313) 
2026-02-13T09:56:36.344Z

>  <updatedAt>  (313) 
2026-02-13T09:56:36.344Z

>  <NumRotatableBonds>  (313) 
2

>  <is_N_methyl>  (313) 
False

>  <is_a_methyl>  (313) 
False

>  <is_alpha_aa>  (313) 
False

>  <is_beta_aa>  (313) 
True

>  <is_S100_aa>  (313) 
False

>  <Murcko_SMILES>  (313) 
C1CNC1

$$$$

     RDKit          2D

  0  0  0  0  0  0  0  0  0  0999 V3000
M  V30 BEGIN CTAB
M  V30 COUNTS 17 18 0 0 0
M  V30 BEGIN ATOM
M  V30 1 O 2.132751 3.144272 0.000000 0
M  V30 2 C 2.444618 4.611494 0.000000 0
M  V30 3 C 1.329901 5.615190 0.000000 0
M  V30 4 C 1.641768 7.082411 0.000000 0
M  V30 5 N 3.068353 7.545937 0.000000 0
M  V30 6 "NOT [H]" 3.380221 9.013158 0.000000 1
M  V30 7 C -0.096684 5.151664 0.000000 0
M  V30 8 C -0.408551 3.684443 0.000000 0
M  V30 9 C -1.835136 3.220917 0.000000 0
M  V30 10 C -2.147004 1.753696 0.000000 0
M  V30 11 C -1.032286 0.750000 0.000000 0
M  V30 12 C 0.394298 1.213525 0.000000 0
M  V30 13 C 0.706166 2.680747 0.000000 0
M  V30 14 O 1.275976 0.000000 0.000000 0
M  V30 15 C 0.394298 -1.213525 0.000000 0
M  V30 16 O -1.032286 -0.750000 0.000000 0
M  V30 17 "NOT [H]" 3.871203 5.075019 0.000000 2
M  V30 END ATOM
M  V30 BEGIN BOND
M  V30 1 2 1 2
M  V30 2 1 2 3
M  V30 3 1 3 4 CFG=1
M  V30 4 1 4 5
M  V30 5 1 5 6
M  V30 6 1 3 7
M  V30 7 1 7 8
M  V30 8 2 8 9
M  V30 9 1 9 10
M  V30 10 2 10 11
M  V30 11 1 11 12
M  V30 12 2 12 13
M  V30 13 1 12 14
M  V30 14 1 14 15
M  V30 15 1 15 16
M  V30 16 1 2 17
M  V30 17 1 13 8
M  V30 18 1 16 11
M  V30 END BOND
M  V30 BEGIN COLLECTION
M  V30 MDLV30/STEREL1 ATOMS=(1 3)
M  V30 END COLLECTION
M  V30 END CTAB
M  END
>  <id>  (314) 
4bacb080-7e2e-4f24-b39a-94e5dcf7d766

>  <Version>  (314) 
0

>  <Alias>  (314) 
3-(1,3Dod-5yl)2APA_1

>  <Type>  (314) 
amino_acid

>  <Smiles>  (314) 
O=C([C@H](CN[*:1])Cc1ccc2c(c1)OCO2)[*:2] |o1:2|

>  <ProtectedSmiles>  (314) 
O=C(NC[C@H](Cc1ccc2c(c1)OCO2)C(=O)O)OCC1c2ccccc2-c2ccccc21 |o1:4|

>  <CAS>  (314) 


>  <User>  (314) 
mischa.s

>  <StereoComment>  (314) 
Isomer 1

>  <Name>  (314) 
3-(1,3-dioxaindan-5-yl)-2-({[(9H-fluoren-9-yl)methoxy]carbonyl}amino)propanoic acid

>  <Code>  (314) 
3-(1,3Dod-5yl)2APA_1

>  <AliasLowerCase>  (314) 
3-(1,3dod-5yl)2apa_1

>  <LatestVersion>  (314) 
0.0

>  <createdAt>  (314) 
2026-01-14T11:32:30.115Z

>  <updatedAt>  (314) 
2026-01-14T11:32:30.115Z

>  <NumRotatableBonds>  (314) 
5

>  <is_N_methyl>  (314) 
False

>  <is_a_methyl>  (314) 
False

>  <is_alpha_aa>  (314) 
False

>  <is_beta_aa>  (314) 
True

>  <is_S100_aa>  (314) 
False

>  <Murcko_SMILES>  (314) 
c1ccc2c(c1)OCO2

$$$$

     RDKit          2D

 10  9  0  0  0  0  0  0  0  0999 V2000
    6.4952    0.7500    0.0000 N   0  0  0  0  0  0  0  0  0  0  0  0
    5.1962   -0.0000    0.0000 C   0  0  0  0  0  0  0  0  0  0  0  0
    5.1962   -1.5000    0.0000 O   0  0  0  0  0  0  0  0  0  0  0  0
    3.8971    0.7500    0.0000 C   0  0  0  0  0  0  0  0  0  0  0  0
    2.5981   -0.0000    0.0000 C   0  0  0  0  0  0  0  0  0  0  0  0
    1.2990    0.7500    0.0000 N   0  0  0  0  0  0  0  0  0  0  0  0
    0.0000    0.0000    0.0000 R   0  0  0  0  0  1  0  0  0  1  0  0
    2.5981   -1.5000    0.0000 C   0  0  0  0  0  0  0  0  0  0  0  0
    1.2990   -2.2500    0.0000 O   0  0  0  0  0  0  0  0  0  0  0  0
    3.8971   -2.2500    0.0000 R   0  0  0  0  0  1  0  0  0  2  0  0
  1  2  1  0
  2  3  2  0
  2  4  1  0
  5  4  1  6
  5  6  1  0
  6  7  1  0
  5  8  1  0
  8  9  2  0
  8 10  1  0
M  END
>  <id>  (315) 
74a5349c-7313-471a-9cc9-6af82739ac3f

>  <Version>  (315) 
0

>  <Alias>  (315) 
D-Asn_UP

>  <Type>  (315) 
amino_acid

>  <Smiles>  (315) 
NC(=O)C[C@@H](N[*:1])C(=O)[*:2]

>  <ProtectedSmiles>  (315) 
NC(=O)C[C@@H](NC(=O)OCC1c2ccccc2-c2ccccc21)C(=O)O

>  <CAS>  (315) 
108321-39-7

>  <User>  (315) 
Sevan.habeshian@orbismedicines.com

>  <StereoComment>  (315) 
as drawn

>  <Name>  (315) 
N/A

>  <Code>  (315) 
D-Asn_UP

>  <AliasLowerCase>  (315) 
d-asn_up

>  <LatestVersion>  (315) 
0.0

>  <createdAt>  (315) 
2026-02-13T09:56:35.392Z

>  <updatedAt>  (315) 
2026-02-13T09:56:35.392Z

>  <NumRotatableBonds>  (315) 
4

>  <is_N_methyl>  (315) 
False

>  <is_a_methyl>  (315) 
False

>  <is_alpha_aa>  (315) 
True

>  <is_beta_aa>  (315) 
False

>  <is_S100_aa>  (315) 
False

>  <Murcko_SMILES>  (315) 


$$$$

     RDKit          2D

  9  8  0  0  0  0  0  0  0  0999 V2000
    5.1962   -0.0000    0.0000 C   0  0  0  0  0  0  0  0  0  0  0  0
    3.8971    0.7500    0.0000 C   0  0  0  0  0  0  0  0  0  0  0  0
    3.8971    2.2500    0.0000 O   0  0  0  0  0  0  0  0  0  0  0  0
    2.5981   -0.0000    0.0000 C   0  0  0  0  0  0  0  0  0  0  0  0
    1.2990    0.7500    0.0000 N   0  0  0  0  0  0  0  0  0  0  0  0
    0.0000    0.0000    0.0000 R   0  0  0  0  0  1  0  0  0  1  0  0
    2.5981   -1.5000    0.0000 C   0  0  0  0  0  0  0  0  0  0  0  0
    1.2990   -2.2500    0.0000 O   0  0  0  0  0  0  0  0  0  0  0  0
    3.8971   -2.2500    0.0000 R   0  0  0  0  0  1  0  0  0  2  0  0
  2  1  1  1
  2  3  1  0
  2  4  1  0
  4  5  1  1
  5  6  1  0
  4  7  1  0
  7  8  2  0
  7  9  1  0
M  END
>  <id>  (316) 
de95aef7-95de-47d0-9d07-98dbc0d9fd7d

>  <Version>  (316) 
0

>  <Alias>  (316) 
(S)-alloThr

>  <Type>  (316) 
amino_acid

>  <Smiles>  (316) 
C[C@H](O)[C@H](N[*:1])C(=O)[*:2]

>  <ProtectedSmiles>  (316) 
C[C@H](O)[C@H](NC(=O)OCC1c2ccccc2-c2ccccc21)C(=O)O

>  <CAS>  (316) 
146306-75-4

>  <User>  (316) 
mischa.s

>  <StereoComment>  (316) 
as drawn

>  <Name>  (316) 
Fmoc-L-allo-Thr-OH

>  <Code>  (316) 
(S)-alloThr

>  <AliasLowerCase>  (316) 
(s)-allothr

>  <LatestVersion>  (316) 
0.0

>  <createdAt>  (316) 
2026-01-14T11:34:58.691Z

>  <updatedAt>  (316) 
2026-01-14T11:34:58.691Z

>  <NumRotatableBonds>  (316) 
3

>  <is_N_methyl>  (316) 
False

>  <is_a_methyl>  (316) 
False

>  <is_alpha_aa>  (316) 
True

>  <is_beta_aa>  (316) 
False

>  <is_S100_aa>  (316) 
False

>  <Murcko_SMILES>  (316) 


$$$$

     RDKit          2D

 17 18  0  0  0  0  0  0  0  0999 V2000
   -0.1386   -1.4557    0.0000 O   0  0  0  0  0  0  0  0  0  0  0  0
   -0.3991   -2.9329    0.0000 C   0  0  0  0  0  0  0  0  0  0  0  0
    0.7500   -3.8971    0.0000 C   0  0  0  0  0  0  0  0  0  0  0  0
    1.5000   -2.5981    0.0000 C   0  0  0  0  0  0  0  0  0  0  0  0
    3.0000   -2.5981    0.0000 C   0  0  0  0  0  0  0  0  0  0  0  0
    3.7500   -3.8971    0.0000 C   0  0  0  0  0  0  0  0  0  0  0  0
    5.2500   -3.8971    0.0000 C   0  0  0  0  0  0  0  0  0  0  0  0
    6.0000   -2.5981    0.0000 C   0  0  0  0  0  0  0  0  0  0  0  0
    5.2500   -1.2990    0.0000 C   0  0  0  0  0  0  0  0  0  0  0  0
    3.7500   -1.2990    0.0000 C   0  0  0  0  0  0  0  0  0  0  0  0
    2.1595   -4.4101    0.0000 C   0  0  0  0  0  0  0  0  0  0  0  0
    2.4200   -5.8874    0.0000 C   0  0  0  0  0  0  0  0  0  0  0  0
    1.2709   -6.8515    0.0000 N   0  0  0  0  0  0  0  0  0  0  0  0
    1.5314   -8.3287    0.0000 R   0  0  0  0  0  1  0  0  0  1  0  0
   -0.1386   -6.3385    0.0000 C   0  0  0  0  0  0  0  0  0  0  0  0
   -0.3991   -4.8613    0.0000 C   0  0  0  0  0  0  0  0  0  0  0  0
   -1.8086   -3.4460    0.0000 R   0  0  0  0  0  1  0  0  0  2  0  0
  1  2  2  0
  2  3  1  0
  3  4  1  0
  4  5  1  0
  5  6  2  0
  6  7  1  0
  7  8  2  0
  8  9  1  0
  9 10  2  0
  3 11  1  0
 11 12  1  0
 12 13  1  0
 13 14  1  0
 13 15  1  0
 15 16  1  0
  2 17  1  0
 16  3  1  0
 10  5  1  0
M  END
>  <id>  (317) 
a9e51f5b-2b56-42dd-af6c-c171df6ccbd5

>  <Version>  (317) 
0

>  <Alias>  (317) 
4BPip4CA

>  <Type>  (317) 
amino_acid

>  <Smiles>  (317) 
O=C(C1(Cc2ccccc2)CCN([*:1])CC1)[*:2]

>  <ProtectedSmiles>  (317) 
O=C(OCC1c2ccccc2-c2ccccc21)N1CCC(Cc2ccccc2)(C(=O)O)CC1

>  <CAS>  (317) 
2356097-84-0

>  <User>  (317) 
mischa.s

>  <StereoComment>  (317) 
as drawn

>  <Name>  (317) 
4-benzyl-1-{[(9H-fluoren-9-yl)methoxy]carbonyl}piperidine-4-carboxylic acid

>  <Code>  (317) 
4BPip4CA

>  <AliasLowerCase>  (317) 
4bpip4ca

>  <LatestVersion>  (317) 
0.0

>  <createdAt>  (317) 
2026-01-14T11:37:51.388Z

>  <updatedAt>  (317) 
2026-01-14T11:37:51.388Z

>  <NumRotatableBonds>  (317) 
3

>  <is_N_methyl>  (317) 
False

>  <is_a_methyl>  (317) 
False

>  <is_alpha_aa>  (317) 
False

>  <is_beta_aa>  (317) 
False

>  <is_S100_aa>  (317) 
False

>  <Murcko_SMILES>  (317) 
c1ccc(CC2CCNCC2)cc1

$$$$

     RDKit          2D

 13 13  0  0  0  0  0  0  0  0999 V2000
    3.0000   -2.5981    0.0000 O   0  0  0  0  0  0  0  0  0  0  0  0
    3.7500   -1.2990    0.0000 C   0  0  0  0  0  0  0  0  0  0  0  0
    3.0000    0.0000    0.0000 C   0  0  0  0  0  0  0  0  0  0  0  0
    3.7500    1.2990    0.0000 N   0  0  0  0  0  0  0  0  0  0  0  0
    5.2500    1.2990    0.0000 R   0  0  0  0  0  1  0  0  0  1  0  0
    1.5000    0.0000    0.0000 C   0  0  0  0  0  0  0  0  0  0  0  0
    0.7500   -1.2990    0.0000 C   0  0  0  0  0  0  0  0  0  0  0  0
   -0.7500   -1.2990    0.0000 C   0  0  0  0  0  0  0  0  0  0  0  0
   -1.5000    0.0000    0.0000 C   0  0  0  0  0  0  0  0  0  0  0  0
   -3.0000    0.0000    0.0000 O   0  0  0  0  0  0  0  0  0  0  0  0
   -0.7500    1.2990    0.0000 C   0  0  0  0  0  0  0  0  0  0  0  0
    0.7500    1.2990    0.0000 C   0  0  0  0  0  0  0  0  0  0  0  0
    5.2500   -1.2990    0.0000 R   0  0  0  0  0  1  0  0  0  2  0  0
  1  2  2  0
  2  3  1  0
  3  4  1  6
  4  5  1  0
  3  6  1  0
  6  7  2  0
  7  8  1  0
  8  9  2  0
  9 10  1  0
  9 11  1  0
 11 12  2  0
  2 13  1  0
 12  6  1  0
M  END
>  <id>  (318) 
1e91de8c-217f-4d71-a7de-bd1946bf03bf

>  <Version>  (318) 
0

>  <Alias>  (318) 
(2S)4HOPhGly

>  <Type>  (318) 
amino_acid

>  <Smiles>  (318) 
O=C([C@@H](N[*:1])c1ccc(O)cc1)[*:2]

>  <ProtectedSmiles>  (318) 
O=C(N[C@H](C(=O)O)c1ccc(O)cc1)OCC1c2ccccc2-c2ccccc21

>  <CAS>  (318) 
182883-41-6

>  <User>  (318) 
angelica.l

>  <StereoComment>  (318) 
as drawn

>  <Name>  (318) 
(2S)-2-({[(9H-fluoren-9-yl)methoxy]carbonyl}amino)-2-(4-hydroxyphenyl)acetic acid

>  <Code>  (318) 
(2S)4HOPhGly

>  <AliasLowerCase>  (318) 
(2s)4hophgly

>  <LatestVersion>  (318) 
0.0

>  <createdAt>  (318) 
2026-01-14T11:35:19.728Z

>  <updatedAt>  (318) 
2026-01-14T11:35:19.728Z

>  <NumRotatableBonds>  (318) 
3

>  <is_N_methyl>  (318) 
False

>  <is_a_methyl>  (318) 
False

>  <is_alpha_aa>  (318) 
True

>  <is_beta_aa>  (318) 
False

>  <is_S100_aa>  (318) 
False

>  <Murcko_SMILES>  (318) 
c1ccccc1

$$$$

     RDKit          2D

 14 14  0  0  0  0  0  0  0  0999 V2000
    6.0000    0.0000    0.0000 O   0  0  0  0  0  0  0  0  0  0  0  0
    5.2500   -1.2990    0.0000 C   0  0  0  0  0  0  0  0  0  0  0  0
    3.7500   -1.2990    0.0000 C   0  0  0  0  0  0  0  0  0  0  0  0
    3.0000    0.0000    0.0000 C   0  0  0  0  0  0  0  0  0  0  0  0
    1.5000    0.0000    0.0000 C   0  0  0  0  0  0  0  0  0  0  0  0
    0.7500   -1.2990    0.0000 C   0  0  0  0  0  0  0  0  0  0  0  0
   -0.7500   -1.2990    0.0000 C   0  0  0  0  0  0  0  0  0  0  0  0
   -1.5000    0.0000    0.0000 C   0  0  0  0  0  0  0  0  0  0  0  0
   -0.7500    1.2990    0.0000 C   0  0  0  0  0  0  0  0  0  0  0  0
   -1.5000    2.5981    0.0000 F   0  0  0  0  0  0  0  0  0  0  0  0
    0.7500    1.2990    0.0000 C   0  0  0  0  0  0  0  0  0  0  0  0
    3.0000   -2.5981    0.0000 N   0  0  0  0  0  0  0  0  0  0  0  0
    3.7500   -3.8971    0.0000 R   0  0  0  0  0  1  0  0  0  1  0  0
    6.0000   -2.5981    0.0000 R   0  0  0  0  0  1  0  0  0  2  0  0
  1  2  2  0
  2  3  1  0
  3  4  1  6
  4  5  1  0
  5  6  2  0
  6  7  1  0
  7  8  2  0
  8  9  1  0
  9 10  1  0
  9 11  2  0
  3 12  1  0
 12 13  1  0
  2 14  1  0
 11  5  1  0
M  END
>  <id>  (319) 
15a27dd5-a1dd-4413-9bca-91ddcf5dff19

>  <Version>  (319) 
0

>  <Alias>  (319) 
D-3FPhe

>  <Type>  (319) 
amino_acid

>  <Smiles>  (319) 
O=C([C@@H](Cc1cccc(F)c1)N[*:1])[*:2]

>  <ProtectedSmiles>  (319) 
O=C(N[C@H](Cc1cccc(F)c1)C(=O)O)OCC1c2ccccc2-c2ccccc21

>  <CAS>  (319) 
198545-72-1

>  <User>  (319) 
sevan.h

>  <StereoComment>  (319) 
as drawn

>  <Name>  (319) 
Fmoc-3-fluoro-d-phenylalanine

>  <Code>  (319) 
D-3FPhe

>  <AliasLowerCase>  (319) 
d-3fphe

>  <LatestVersion>  (319) 
0.0

>  <createdAt>  (319) 
2026-01-14T12:16:19.591Z

>  <updatedAt>  (319) 
2026-01-14T12:16:19.591Z

>  <NumRotatableBonds>  (319) 
4

>  <is_N_methyl>  (319) 
False

>  <is_a_methyl>  (319) 
False

>  <is_alpha_aa>  (319) 
True

>  <is_beta_aa>  (319) 
False

>  <is_S100_aa>  (319) 
False

>  <Murcko_SMILES>  (319) 
c1ccccc1

$$$$

     RDKit          2D

  9  8  0  0  0  0  0  0  0  0999 V2000
    6.4952    0.7500    0.0000 C   0  0  0  0  0  0  0  0  0  0  0  0
    5.1962   -0.0000    0.0000 C   0  0  0  0  0  0  0  0  0  0  0  0
    3.8971    0.7500    0.0000 C   0  0  0  0  0  0  0  0  0  0  0  0
    2.5981   -0.0000    0.0000 C   0  0  0  0  0  0  0  0  0  0  0  0
    1.2990    0.7500    0.0000 C   0  0  0  0  0  0  0  0  0  0  0  0
    1.2990    2.2500    0.0000 O   0  0  0  0  0  0  0  0  0  0  0  0
    0.0000    0.0000    0.0000 R   0  0  0  0  0  1  0  0  0  2  0  0
    3.8971    2.2500    0.0000 N   0  0  0  0  0  0  0  0  0  0  0  0
    5.1962    3.0000    0.0000 R   0  0  0  0  0  1  0  0  0  1  0  0
  1  2  1  0
  3  2  1  6
  3  4  1  0
  4  5  1  0
  5  6  2  0
  5  7  1  0
  3  8  1  0
  8  9  1  0
M  END
>  <id>  (320) 
94c4bd49-fa76-4ea7-81c7-24761b630390

>  <Version>  (320) 
0

>  <Alias>  (320) 
(3R)-EtPA

>  <Type>  (320) 
amino_acid

>  <Smiles>  (320) 
CC[C@H](CC(=O)[*:2])N[*:1]

>  <ProtectedSmiles>  (320) 
CC[C@H](CC(=O)O)NC(=O)OCC1c2ccccc2-c2ccccc21

>  <CAS>  (320) 
1353293-73-8

>  <User>  (320) 
mischa.s

>  <StereoComment>  (320) 
as drawn

>  <Name>  (320) 
(3R)-3-({[(9H-fluoren-9-yl)methoxy]carbonyl}amino)pentanoic acid

>  <Code>  (320) 
(3R)-EtPA

>  <AliasLowerCase>  (320) 
(3r)-etpa

>  <LatestVersion>  (320) 
0.0

>  <createdAt>  (320) 
2026-01-14T11:33:11.597Z

>  <updatedAt>  (320) 
2026-01-14T11:33:11.597Z

>  <NumRotatableBonds>  (320) 
4

>  <is_N_methyl>  (320) 
False

>  <is_a_methyl>  (320) 
False

>  <is_alpha_aa>  (320) 
False

>  <is_beta_aa>  (320) 
True

>  <is_S100_aa>  (320) 
False

>  <Murcko_SMILES>  (320) 


$$$$

     RDKit          2D

 15 16  0  0  0  0  0  0  0  0999 V2000
    3.7500    1.2990    0.0000 O   0  0  0  0  0  0  0  0  0  0  0  0
    3.0000    0.0000    0.0000 C   0  0  0  0  0  0  0  0  0  0  0  0
    1.5000    0.0000    0.0000 C   0  0  0  0  0  0  0  0  0  0  0  0
    0.7500   -1.2990    0.0000 C   0  0  0  0  0  0  0  0  0  0  0  0
   -0.7500   -1.2990    0.0000 C   0  0  0  0  0  0  0  0  0  0  0  0
   -1.5000    0.0000    0.0000 C   0  0  0  0  0  0  0  0  0  0  0  0
   -0.7500    1.2990    0.0000 C   0  0  0  0  0  0  0  0  0  0  0  0
    0.7500    1.2990    0.0000 C   0  0  0  0  0  0  0  0  0  0  0  0
    1.5000    2.5981    0.0000 C   0  0  0  0  0  0  0  0  0  0  0  0
    0.7500    3.8971    0.0000 C   0  0  0  0  0  0  0  0  0  0  0  0
   -0.7500    3.8971    0.0000 C   0  0  0  0  0  0  0  0  0  0  0  0
   -1.5000    5.1962    0.0000 N   0  0  0  0  0  0  0  0  0  0  0  0
   -0.7500    6.4952    0.0000 R   0  0  0  0  0  1  0  0  0  1  0  0
   -1.5000    2.5981    0.0000 C   0  0  0  0  0  0  0  0  0  0  0  0
    3.7500   -1.2990    0.0000 R   0  0  0  0  0  1  0  0  0  2  0  0
  1  2  2  0
  2  3  1  0
  3  4  2  0
  4  5  1  0
  5  6  2  0
  6  7  1  0
  7  8  2  0
  8  9  1  0
  9 10  1  0
 10 11  1  0
 11 12  1  0
 12 13  1  0
 11 14  1  0
  2 15  1  0
  8  3  1  0
 14  7  1  0
M  END
>  <id>  (321) 
1ae60bd3-a619-4914-b745-fee438b68f21

>  <Version>  (321) 
0

>  <Alias>  (321) 
6N-THN-1C

>  <Type>  (321) 
amino_acid

>  <Smiles>  (321) 
O=C(c1cccc2c1CCC(N[*:1])C2)[*:2]

>  <ProtectedSmiles>  (321) 
O=C(NC1CCc2c(cccc2C(=O)O)C1)OCC1c2ccccc2-c2ccccc21

>  <CAS>  (321) 
3033406-17-3

>  <User>  (321) 
angelica.l

>  <StereoComment>  (321) 
as drawn

>  <Name>  (321) 
6-({[(9H-fluoren-9-yl)methoxy]carbonyl}amino)-5,6,7,8-tetrahydronaphthalene-1-carboxylic acid

>  <Code>  (321) 
6N-THN-1C

>  <AliasLowerCase>  (321) 
6n-thn-1c

>  <LatestVersion>  (321) 
0.0

>  <createdAt>  (321) 
2026-01-14T11:34:42.951Z

>  <updatedAt>  (321) 
2026-01-14T11:34:42.951Z

>  <NumRotatableBonds>  (321) 
2

>  <is_N_methyl>  (321) 
False

>  <is_a_methyl>  (321) 
False

>  <is_alpha_aa>  (321) 
False

>  <is_beta_aa>  (321) 
False

>  <is_S100_aa>  (321) 
False

>  <Murcko_SMILES>  (321) 
c1ccc2c(c1)CCCC2

$$$$

     RDKit          2D

 14 14  0  0  0  0  0  0  0  0999 V2000
    3.0000    0.0000    0.0000 C   0  0  0  0  0  0  0  0  0  0  0  0
    1.5000    0.0000    0.0000 C   0  0  0  0  0  0  0  0  0  0  0  0
    0.7500   -1.2990    0.0000 C   0  0  0  0  0  0  0  0  0  0  0  0
   -0.7500   -1.2990    0.0000 C   0  0  0  0  0  0  0  0  0  0  0  0
   -1.5000   -2.5981    0.0000 C   0  0  0  0  0  0  0  0  0  0  0  0
   -1.5000    0.0000    0.0000 C   0  0  0  0  0  0  0  0  0  0  0  0
   -0.7500    1.2990    0.0000 C   0  0  0  0  0  0  0  0  0  0  0  0
   -1.5000    2.5981    0.0000 C   0  0  0  0  0  0  0  0  0  0  0  0
   -3.0000    2.5981    0.0000 N   0  0  0  0  0  0  0  0  0  0  0  0
   -3.7500    3.8971    0.0000 R   0  0  0  0  0  1  0  0  0  1  0  0
   -0.7500    3.8971    0.0000 C   0  0  0  0  0  0  0  0  0  0  0  0
    0.7500    3.8971    0.0000 O   0  0  0  0  0  0  0  0  0  0  0  0
   -1.5000    5.1962    0.0000 R   0  0  0  0  0  1  0  0  0  2  0  0
    0.7500    1.2990    0.0000 C   0  0  0  0  0  0  0  0  0  0  0  0
  1  2  1  0
  2  3  2  0
  3  4  1  0
  4  5  1  0
  4  6  2  0
  6  7  1  0
  7  8  1  0
  8  9  1  0
  9 10  1  0
  8 11  1  0
 11 12  2  0
 11 13  1  0
  7 14  2  0
 14  2  1  0
M  END
>  <id>  (322) 
c5979961-cd5a-4a39-884f-634d8d2844ab

>  <Version>  (322) 
0

>  <Alias>  (322) 
rac(3,5-diMe)Phg

>  <Type>  (322) 
amino_acid

>  <Smiles>  (322) 
Cc1cc(C)cc(C(N[*:1])C(=O)[*:2])c1

>  <ProtectedSmiles>  (322) 
Cc1cc(C)cc(C(NC(=O)OCC2c3ccccc3-c3ccccc32)C(=O)O)c1

>  <CAS>  (322) 
1262629-25-3

>  <User>  (322) 
mischa.s

>  <StereoComment>  (322) 
as drawn

>  <Name>  (322) 
2-(3,5-dimethylphenyl)-2-({[(9H-fluoren-9-yl)methoxy]carbonyl}amino)acetic acid

>  <Code>  (322) 
rac(3,5-diMe)Phg

>  <AliasLowerCase>  (322) 
rac(3,5-dime)phg

>  <LatestVersion>  (322) 
0.0

>  <createdAt>  (322) 
2026-01-14T11:32:54.556Z

>  <updatedAt>  (322) 
2026-01-14T11:32:54.556Z

>  <NumRotatableBonds>  (322) 
3

>  <is_N_methyl>  (322) 
False

>  <is_a_methyl>  (322) 
False

>  <is_alpha_aa>  (322) 
True

>  <is_beta_aa>  (322) 
False

>  <is_S100_aa>  (322) 
False

>  <Murcko_SMILES>  (322) 
c1ccccc1

$$$$

     RDKit          2D

 13 12  0  0  0  0  0  0  0  0999 V2000
    6.4952    0.7500    0.0000 C   0  0  0  0  0  0  0  0  0  0  0  0
    5.1962   -0.0000    0.0000 C   0  0  0  0  0  0  0  0  0  0  0  0
    5.1962   -1.5000    0.0000 C   0  0  0  0  0  0  0  0  0  0  0  0
    3.8971    0.7500    0.0000 C   0  0  0  0  0  0  0  0  0  0  0  0
    2.5981   -0.0000    0.0000 C   0  0  0  0  0  0  0  0  0  0  0  0
    1.2990    0.7500    0.0000 N   0  0  0  0  0  0  0  0  0  0  0  0
    0.0000    0.0000    0.0000 R   0  0  0  0  0  1  0  0  0  1  0  0
    2.5981   -1.5000    0.0000 C   0  0  0  0  0  0  0  0  0  0  0  0
    1.2990   -2.2500    0.0000 O   0  0  0  0  0  0  0  0  0  0  0  0
    3.8971   -2.2500    0.0000 C   0  0  0  0  0  0  0  0  0  0  0  0
    3.8971   -3.7500    0.0000 C   0  0  0  0  0  0  0  0  0  0  0  0
    2.5981   -4.5000    0.0000 O   0  0  0  0  0  0  0  0  0  0  0  0
    5.1962   -4.5000    0.0000 R   0  0  0  0  0  1  0  0  0  2  0  0
  1  2  1  0
  2  3  1  0
  2  4  1  0
  5  4  1  1
  5  6  1  0
  6  7  1  0
  5  8  1  0
  8  9  1  6
  8 10  1  0
 10 11  1  0
 11 12  2  0
 11 13  1  0
M  END
>  <id>  (323) 
0963a805-1627-4648-b4b4-35921aeb297d

>  <Version>  (323) 
0

>  <Alias>  (323) 
Sta

>  <Type>  (323) 
amino_acid

>  <Smiles>  (323) 
CC(C)C[C@H](N[*:1])[C@@H](O)CC(=O)[*:2]

>  <ProtectedSmiles>  (323) 
CC(C)C[C@H](NC(=O)OCC1c2ccccc2-c2ccccc21)[C@@H](O)CC(=O)O

>  <CAS>  (323) 
158257-40-0

>  <User>  (323) 
sevan.h

>  <StereoComment>  (323) 
as drawn

>  <Name>  (323) 
Fmoc-Sta-OH

>  <Code>  (323) 
Sta

>  <AliasLowerCase>  (323) 
sta

>  <LatestVersion>  (323) 
0.0

>  <createdAt>  (323) 
2026-01-14T12:15:40.246Z

>  <updatedAt>  (323) 
2026-01-14T12:15:40.246Z

>  <NumRotatableBonds>  (323) 
6

>  <is_N_methyl>  (323) 
False

>  <is_a_methyl>  (323) 
False

>  <is_alpha_aa>  (323) 
False

>  <is_beta_aa>  (323) 
False

>  <is_S100_aa>  (323) 
False

>  <Murcko_SMILES>  (323) 


$$$$

     RDKit          2D

 11 10  0  0  0  0  0  0  0  0999 V2000
    6.4952    5.2500    0.0000 C   0  0  0  0  0  0  0  0  0  0  0  0
    5.1962    4.5000    0.0000 N   0  0  0  0  0  0  0  0  0  0  0  0
    3.8971    5.2500    0.0000 C   0  0  0  0  0  0  0  0  0  0  0  0
    5.1962    3.0000    0.0000 C   0  0  0  0  0  0  0  0  0  0  0  0
    3.8971    2.2500    0.0000 C   0  0  0  0  0  0  0  0  0  0  0  0
    3.8971    0.7500    0.0000 N   0  0  0  0  0  0  0  0  0  0  0  0
    2.5981   -0.0000    0.0000 C   0  0  0  0  0  0  0  0  0  0  0  0
    1.2990    0.7500    0.0000 C   0  0  0  0  0  0  0  0  0  0  0  0
    1.2990    2.2500    0.0000 O   0  0  0  0  0  0  0  0  0  0  0  0
    0.0000    0.0000    0.0000 R   0  0  0  0  0  1  0  0  0  2  0  0
    5.1962   -0.0000    0.0000 R   0  0  0  0  0  1  0  0  0  1  0  0
  1  2  1  0
  2  3  1  0
  2  4  1  0
  4  5  1  0
  5  6  1  0
  6  7  1  0
  7  8  1  0
  8  9  2  0
  8 10  1  0
  6 11  1  0
M  END
>  <id>  (324) 
d0ef98fe-25f4-4f31-bf72-271a976f623f

>  <Version>  (324) 
0

>  <Alias>  (324) 
N-(Me2NEt)Gly

>  <Type>  (324) 
amino_acid

>  <Smiles>  (324) 
CN(C)CCN(CC(=O)[*:2])[*:1]

>  <ProtectedSmiles>  (324) 
CN(C)CCN(CC(=O)O)C(=O)OCC1c2ccccc2-c2ccccc21

>  <CAS>  (324) 
1700664-28-3

>  <User>  (324) 
angelica.l

>  <StereoComment>  (324) 
as drawn

>  <Name>  (324) 
2-{[2-(dimethylamino)ethyl]({[(9H-fluoren-9-yl)methoxy]carbonyl})amino}acetic acid

>  <Code>  (324) 
N-(Me2NEt)Gly

>  <AliasLowerCase>  (324) 
n-(me2net)gly

>  <LatestVersion>  (324) 
0.0

>  <createdAt>  (324) 
2026-01-14T11:34:09.458Z

>  <updatedAt>  (324) 
2026-01-14T11:34:09.458Z

>  <NumRotatableBonds>  (324) 
5

>  <is_N_methyl>  (324) 
False

>  <is_a_methyl>  (324) 
False

>  <is_alpha_aa>  (324) 
True

>  <is_beta_aa>  (324) 
False

>  <is_S100_aa>  (324) 
False

>  <Murcko_SMILES>  (324) 


$$$$

     RDKit          2D

 14 14  0  0  0  0  0  0  0  0999 V2000
    3.7500   -1.2990    0.0000 C   0  0  0  0  0  0  0  0  0  0  0  0
    3.0000    0.0000    0.0000 O   0  0  0  0  0  0  0  0  0  0  0  0
    1.5000    0.0000    0.0000 C   0  0  0  0  0  0  0  0  0  0  0  0
    0.7500   -1.2990    0.0000 C   0  0  0  0  0  0  0  0  0  0  0  0
   -0.7500   -1.2990    0.0000 C   0  0  0  0  0  0  0  0  0  0  0  0
   -1.5000   -2.5981    0.0000 C   0  0  0  0  0  0  0  0  0  0  0  0
   -3.0000   -2.5981    0.0000 N   0  0  0  0  0  0  0  0  0  0  0  0
   -3.7500   -3.8971    0.0000 R   0  0  0  0  0  1  0  0  0  1  0  0
   -1.5000    0.0000    0.0000 C   0  0  0  0  0  0  0  0  0  0  0  0
   -0.7500    1.2990    0.0000 C   0  0  0  0  0  0  0  0  0  0  0  0
    0.7500    1.2990    0.0000 C   0  0  0  0  0  0  0  0  0  0  0  0
    1.5000    2.5981    0.0000 C   0  0  0  0  0  0  0  0  0  0  0  0
    0.7500    3.8971    0.0000 O   0  0  0  0  0  0  0  0  0  0  0  0
    3.0000    2.5981    0.0000 R   0  0  0  0  0  1  0  0  0  2  0  0
  1  2  1  0
  2  3  1  0
  3  4  2  0
  4  5  1  0
  5  6  1  0
  6  7  1  0
  7  8  1  0
  5  9  2  0
  9 10  1  0
 10 11  2  0
 11 12  1  0
 12 13  2  0
 12 14  1  0
 11  3  1  0
M  END
>  <id>  (325) 
1b3771a0-c13e-40ba-85d1-c760857d98f3

>  <Version>  (325) 
0

>  <Alias>  (325) 
2MeO-4AMBA

>  <Type>  (325) 
amino_acid

>  <Smiles>  (325) 
COc1cc(CN[*:1])ccc1C(=O)[*:2]

>  <ProtectedSmiles>  (325) 
COc1cc(CNC(=O)OCC2c3ccccc3-c3ccccc32)ccc1C(=O)O

>  <CAS>  (325) 
2125396-31-6

>  <User>  (325) 
Sevan.habeshian@orbismedicines.com

>  <StereoComment>  (325) 
as drawn

>  <Name>  (325) 
N/A

>  <Code>  (325) 
2MeO-4AMBA

>  <AliasLowerCase>  (325) 
2meo-4amba

>  <LatestVersion>  (325) 
0.0

>  <createdAt>  (325) 
2026-02-13T09:56:35.505Z

>  <updatedAt>  (325) 
2026-02-13T09:56:35.505Z

>  <NumRotatableBonds>  (325) 
4

>  <is_N_methyl>  (325) 
False

>  <is_a_methyl>  (325) 
False

>  <is_alpha_aa>  (325) 
False

>  <is_beta_aa>  (325) 
False

>  <is_S100_aa>  (325) 
False

>  <Murcko_SMILES>  (325) 
c1ccccc1

$$$$

     RDKit          2D

 13 14  0  0  0  0  0  0  0  0999 V2000
    3.7548   -2.1855    0.0000 O   0  0  0  0  0  0  0  0  0  0  0  0
    2.6401   -3.1891    0.0000 C   0  0  0  0  0  0  0  0  0  0  0  0
    1.2135   -2.7256    0.0000 C   0  0  0  0  0  0  0  0  0  0  0  0
    0.0000   -3.6073    0.0000 C   0  0  0  0  0  0  0  0  0  0  0  0
   -1.2135   -2.7256    0.0000 N   0  0  0  0  0  0  0  0  0  0  0  0
   -0.7500   -1.2990    0.0000 N   0  0  0  0  0  0  0  0  0  0  0  0
    0.7500   -1.2990    0.0000 C   0  0  0  0  0  0  0  0  0  0  0  0
    1.5000    0.0000    0.0000 C   0  0  0  0  0  0  0  0  0  0  0  0
    0.7500    1.2990    0.0000 N   0  0  0  0  0  0  0  0  0  0  0  0
    1.5000    2.5981    0.0000 R   0  0  0  0  0  1  0  0  0  1  0  0
   -0.7500    1.2990    0.0000 C   0  0  0  0  0  0  0  0  0  0  0  0
   -1.5000    0.0000    0.0000 C   0  0  0  0  0  0  0  0  0  0  0  0
    2.9520   -4.6564    0.0000 R   0  0  0  0  0  1  0  0  0  2  0  0
  1  2  2  0
  2  3  1  0
  3  4  1  0
  4  5  2  0
  5  6  1  0
  6  7  1  0
  7  8  1  0
  8  9  1  0
  9 10  1  0
  9 11  1  0
 11 12  1  0
  2 13  1  0
  7  3  2  0
 12  6  1  0
M  END
>  <id>  (326) 
b192f4a1-df1e-4311-b057-e0e07d2b3814

>  <Version>  (326) 
0

>  <Alias>  (326) 
PzPzCA

>  <Type>  (326) 
amino_acid

>  <Smiles>  (326) 
O=C(c1cnn2c1CN([*:1])CC2)[*:2]

>  <ProtectedSmiles>  (326) 
O=C(O)c1cnn2c1CN(C(=O)OCC1c3ccccc3-c3ccccc31)CC2

>  <CAS>  (326) 
2138424-73-2

>  <User>  (326) 
Sevan.habeshian@orbismedicines.com

>  <StereoComment>  (326) 
as drawn

>  <Name>  (326) 
N/A

>  <Code>  (326) 
PzPzCA

>  <AliasLowerCase>  (326) 
pzpzca

>  <LatestVersion>  (326) 
0.0

>  <createdAt>  (326) 
2026-02-13T09:56:36.395Z

>  <updatedAt>  (326) 
2026-02-13T09:56:36.395Z

>  <NumRotatableBonds>  (326) 
1

>  <is_N_methyl>  (326) 
False

>  <is_a_methyl>  (326) 
False

>  <is_alpha_aa>  (326) 
False

>  <is_beta_aa>  (326) 
False

>  <is_S100_aa>  (326) 
False

>  <Murcko_SMILES>  (326) 
c1cc2n(n1)CCNC2

$$$$

     RDKit          2D

 13 13  0  0  0  0  0  0  0  0999 V2000
    6.0000    0.0000    0.0000 O   0  0  0  0  0  0  0  0  0  0  0  0
    5.2500   -1.2990    0.0000 C   0  0  0  0  0  0  0  0  0  0  0  0
    3.7500   -1.2990    0.0000 C   0  0  0  0  0  0  0  0  0  0  0  0
    3.0000    0.0000    0.0000 C   0  0  0  0  0  0  0  0  0  0  0  0
    1.5000    0.0000    0.0000 C   0  0  0  0  0  0  0  0  0  0  0  0
    0.7500   -1.2990    0.0000 C   0  0  0  0  0  0  0  0  0  0  0  0
   -0.7500   -1.2990    0.0000 C   0  0  0  0  0  0  0  0  0  0  0  0
   -1.5000    0.0000    0.0000 C   0  0  0  0  0  0  0  0  0  0  0  0
   -0.7500    1.2990    0.0000 C   0  0  0  0  0  0  0  0  0  0  0  0
    0.7500    1.2990    0.0000 C   0  0  0  0  0  0  0  0  0  0  0  0
    1.5000    2.5981    0.0000 N   0  0  0  0  0  0  0  0  0  0  0  0
    0.7500    3.8971    0.0000 R   0  0  0  0  0  1  0  0  0  1  0  0
    6.0000   -2.5981    0.0000 R   0  0  0  0  0  1  0  0  0  2  0  0
  1  2  2  0
  2  3  1  0
  3  4  1  0
  4  5  1  0
  5  6  2  0
  6  7  1  0
  7  8  2  0
  8  9  1  0
  9 10  2  0
 10 11  1  0
 11 12  1  0
  2 13  1  0
 10  5  1  0
M  END
>  <id>  (327) 
b296164a-52e2-45bd-809d-716da4789bfd

>  <Version>  (327) 
0

>  <Alias>  (327) 
2Appa

>  <Type>  (327) 
amino_acid

>  <Smiles>  (327) 
O=C(CCc1ccccc1N[*:1])[*:2]

>  <ProtectedSmiles>  (327) 
O=C(O)CCc1ccccc1NC(=O)OCC1c2ccccc2-c2ccccc21

>  <CAS>  (327) 
1702831-69-3

>  <User>  (327) 
mischa.s

>  <StereoComment>  (327) 
as drawn

>  <Name>  (327) 
3-[2-({[(9H-fluoren-9-yl)methoxy]carbonyl}amino)phenyl]propanoic acid

>  <Code>  (327) 
2Appa

>  <AliasLowerCase>  (327) 
2appa

>  <LatestVersion>  (327) 
0.0

>  <createdAt>  (327) 
2026-01-14T11:37:49.367Z

>  <updatedAt>  (327) 
2026-01-14T11:37:49.367Z

>  <NumRotatableBonds>  (327) 
4

>  <is_N_methyl>  (327) 
False

>  <is_a_methyl>  (327) 
False

>  <is_alpha_aa>  (327) 
False

>  <is_beta_aa>  (327) 
False

>  <is_S100_aa>  (327) 
False

>  <Murcko_SMILES>  (327) 
c1ccccc1

$$$$

     RDKit          2D

 14 15  0  0  0  0  0  0  0  0999 V2000
    3.7500   -1.2990    0.0000 O   0  0  0  0  0  0  0  0  0  0  0  0
    3.0000   -2.5981    0.0000 C   0  0  0  0  0  0  0  0  0  0  0  0
    1.5000   -2.5981    0.0000 C   0  0  0  0  0  0  0  0  0  0  0  0
    0.7500   -1.2990    0.0000 C   0  0  0  0  0  0  0  0  0  0  0  0
    1.5000    0.0000    0.0000 C   0  0  0  0  0  0  0  0  0  0  0  0
    0.7500    1.2990    0.0000 C   0  0  0  0  0  0  0  0  0  0  0  0
   -0.7500    1.2990    0.0000 C   0  0  0  0  0  0  0  0  0  0  0  0
   -1.5000    0.0000    0.0000 C   0  0  0  0  0  0  0  0  0  0  0  0
   -0.7500   -1.2990    0.0000 C   0  0  0  0  0  0  0  0  0  0  0  0
   -1.5000   -2.5981    0.0000 C   0  0  0  0  0  0  0  0  0  0  0  0
   -0.7500   -3.8971    0.0000 C   0  0  0  0  0  0  0  0  0  0  0  0
    0.7500   -3.8971    0.0000 N   0  0  0  0  0  0  0  0  0  0  0  0
    1.5000   -5.1962    0.0000 R   0  0  0  0  0  1  0  0  0  1  0  0
    3.7500   -3.8971    0.0000 R   0  0  0  0  0  1  0  0  0  2  0  0
  1  2  2  0
  3  2  1  6
  3  4  1  0
  4  5  2  0
  5  6  1  0
  6  7  2  0
  7  8  1  0
  8  9  2  0
  9 10  1  0
 10 11  1  0
 11 12  1  0
 12 13  1  0
  2 14  1  0
 12  3  1  0
  9  4  1  0
M  END
>  <id>  (328) 
74017c7a-9605-4826-a1d7-31b536e6cfc6

>  <Version>  (328) 
0

>  <Alias>  (328) 
D-1-Tic

>  <Type>  (328) 
amino_acid

>  <Smiles>  (328) 
O=C([C@H]1c2ccccc2CCN1[*:1])[*:2]

>  <ProtectedSmiles>  (328) 
O=C(O)[C@H]1c2ccccc2CCN1C(=O)OCC1c2ccccc2-c2ccccc21

>  <CAS>  (328) 
204317-98-6

>  <User>  (328) 
Sevan.habeshian@orbismedicines.com

>  <StereoComment>  (328) 
as drawn

>  <Name>  (328) 
N/A

>  <Code>  (328) 
D-1-Tic

>  <AliasLowerCase>  (328) 
d-1-tic

>  <LatestVersion>  (328) 
0.0

>  <createdAt>  (328) 
2026-02-13T09:56:35.493Z

>  <updatedAt>  (328) 
2026-02-13T09:56:35.493Z

>  <NumRotatableBonds>  (328) 
1

>  <is_N_methyl>  (328) 
False

>  <is_a_methyl>  (328) 
False

>  <is_alpha_aa>  (328) 
True

>  <is_beta_aa>  (328) 
False

>  <is_S100_aa>  (328) 
False

>  <Murcko_SMILES>  (328) 
c1ccc2c(c1)CCNC2

$$$$

     RDKit          2D

 14 14  0  0  0  0  0  0  0  0999 V2000
    5.2500   -3.8971    0.0000 O   0  0  0  0  0  0  0  0  0  0  0  0
    6.0000   -2.5981    0.0000 C   0  0  0  0  0  0  0  0  0  0  0  0
    5.2500   -1.2990    0.0000 C   0  0  0  0  0  0  0  0  0  0  0  0
    3.7500   -1.2990    0.0000 C   0  0  0  0  0  0  0  0  0  0  0  0
    3.0000    0.0000    0.0000 C   0  0  0  0  0  0  0  0  0  0  0  0
    1.5000    0.0000    0.0000 C   0  0  0  0  0  0  0  0  0  0  0  0
    0.7500   -1.2990    0.0000 C   0  0  0  0  0  0  0  0  0  0  0  0
   -0.7500   -1.2990    0.0000 C   0  0  0  0  0  0  0  0  0  0  0  0
   -1.5000    0.0000    0.0000 C   0  0  0  0  0  0  0  0  0  0  0  0
   -0.7500    1.2990    0.0000 C   0  0  0  0  0  0  0  0  0  0  0  0
    0.7500    1.2990    0.0000 C   0  0  0  0  0  0  0  0  0  0  0  0
    3.0000   -2.5981    0.0000 N   0  0  0  0  0  0  0  0  0  0  0  0
    3.7500   -3.8971    0.0000 R   0  0  0  0  0  1  0  0  0  1  0  0
    7.5000   -2.5981    0.0000 R   0  0  0  0  0  1  0  0  0  2  0  0
  1  2  2  0
  2  3  1  0
  4  3  1  1
  4  5  1  0
  5  6  1  0
  6  7  2  0
  7  8  1  0
  8  9  2  0
  9 10  1  0
 10 11  2  0
  4 12  1  0
 12 13  1  0
  2 14  1  0
 11  6  1  0
M  END
>  <id>  (329) 
3ea22540-d5e9-4795-9e53-9a33b35728ca

>  <Version>  (329) 
0

>  <Alias>  (329) 
B-hPhe

>  <Type>  (329) 
amino_acid

>  <Smiles>  (329) 
O=C(C[C@H](Cc1ccccc1)N[*:1])[*:2]

>  <ProtectedSmiles>  (329) 
O=C(O)C[C@H](Cc1ccccc1)NC(=O)OCC1c2ccccc2-c2ccccc21

>  <CAS>  (329) 
193954-28-8

>  <User>  (329) 
sevan.h

>  <StereoComment>  (329) 
as drawn

>  <Name>  (329) 
Fmoc-L-beta-homophenylalanine

>  <Code>  (329) 
B-hPhe

>  <AliasLowerCase>  (329) 
b-hphe

>  <LatestVersion>  (329) 
0.0

>  <createdAt>  (329) 
2026-01-14T12:15:36.580Z

>  <updatedAt>  (329) 
2026-01-14T12:15:36.580Z

>  <NumRotatableBonds>  (329) 
5

>  <is_N_methyl>  (329) 
False

>  <is_a_methyl>  (329) 
False

>  <is_alpha_aa>  (329) 
False

>  <is_beta_aa>  (329) 
True

>  <is_S100_aa>  (329) 
False

>  <Murcko_SMILES>  (329) 
c1ccccc1

$$$$

     RDKit          2D

 17 18  0  0  0  0  0  0  0  0999 V2000
   -3.0000   -7.7942    0.0000 O   0  0  0  0  0  0  0  0  0  0  0  0
   -3.7500   -6.4952    0.0000 C   0  0  0  0  0  0  0  0  0  0  0  0
   -3.0000   -5.1962    0.0000 C   0  0  0  0  0  0  0  0  0  0  0  0
   -1.5000   -5.1962    0.0000 C   0  0  0  0  0  0  0  0  0  0  0  0
   -0.7500   -3.8971    0.0000 C   0  0  0  0  0  0  0  0  0  0  0  0
    0.7500   -3.8971    0.0000 C   0  0  0  0  0  0  0  0  0  0  0  0
    1.5000   -2.5981    0.0000 C   0  0  0  0  0  0  0  0  0  0  0  0
    0.7500   -1.2990    0.0000 C   0  0  0  0  0  0  0  0  0  0  0  0
    1.5000    0.0000    0.0000 N   0  0  0  0  0  0  0  0  0  0  0  0
    0.7500    1.2990    0.0000 C   0  0  0  0  0  0  0  0  0  0  0  0
   -0.7500    1.2990    0.0000 C   0  0  0  0  0  0  0  0  0  0  0  0
   -1.5000    0.0000    0.0000 C   0  0  0  0  0  0  0  0  0  0  0  0
   -0.7500   -1.2990    0.0000 C   0  0  0  0  0  0  0  0  0  0  0  0
   -1.5000   -2.5981    0.0000 C   0  0  0  0  0  0  0  0  0  0  0  0
   -3.7500   -3.8971    0.0000 N   0  0  0  0  0  0  0  0  0  0  0  0
   -5.2500   -3.8971    0.0000 R   0  0  0  0  0  1  0  0  0  1  0  0
   -5.2500   -6.4952    0.0000 R   0  0  0  0  0  1  0  0  0  2  0  0
  1  2  2  0
  2  3  1  0
  3  4  1  6
  4  5  1  0
  5  6  2  0
  6  7  1  0
  7  8  2  0
  8  9  1  0
  9 10  2  0
 10 11  1  0
 11 12  2  0
 12 13  1  0
 13 14  2  0
  3 15  1  0
 15 16  1  0
  2 17  1  0
 14  5  1  0
 13  8  1  0
M  END
>  <id>  (330) 
11e36b5b-4512-40aa-bff1-2881c1a9d5c0

>  <Version>  (330) 
0

>  <Alias>  (330) 
(2R)3QLPA

>  <Type>  (330) 
amino_acid

>  <Smiles>  (330) 
O=C([C@@H](Cc1ccc2ncccc2c1)N[*:1])[*:2]

>  <ProtectedSmiles>  (330) 
O=C(N[C@H](Cc1ccc2ncccc2c1)C(=O)O)OCC1c2ccccc2-c2ccccc21

>  <CAS>  (330) 
1998596-44-3

>  <User>  (330) 
angelica.l

>  <StereoComment>  (330) 
as drawn

>  <Name>  (330) 
(2R)-2-({[(9H-fluoren-9-yl)methoxy]carbonyl}amino)-3-(quinolin-6-yl)propanoic acid

>  <Code>  (330) 
(2R)3QLPA

>  <AliasLowerCase>  (330) 
(2r)3qlpa

>  <LatestVersion>  (330) 
0.0

>  <createdAt>  (330) 
2026-01-14T11:35:21.803Z

>  <updatedAt>  (330) 
2026-01-14T11:35:21.803Z

>  <NumRotatableBonds>  (330) 
4

>  <is_N_methyl>  (330) 
False

>  <is_a_methyl>  (330) 
False

>  <is_alpha_aa>  (330) 
True

>  <is_beta_aa>  (330) 
False

>  <is_S100_aa>  (330) 
False

>  <Murcko_SMILES>  (330) 
c1ccc2ncccc2c1

$$$$

     RDKit          2D

 14 14  0  0  0  0  0  0  0  0999 V2000
    5.2500   -3.8971    0.0000 O   0  0  0  0  0  0  0  0  0  0  0  0
    6.0000   -2.5981    0.0000 C   0  0  0  0  0  0  0  0  0  0  0  0
    5.2500   -1.2990    0.0000 C   0  0  0  0  0  0  0  0  0  0  0  0
    3.7500   -1.2990    0.0000 C   0  0  0  0  0  0  0  0  0  0  0  0
    3.0000    0.0000    0.0000 C   0  0  0  0  0  0  0  0  0  0  0  0
    1.5000    0.0000    0.0000 C   0  0  0  0  0  0  0  0  0  0  0  0
    0.7500   -1.2990    0.0000 C   0  0  0  0  0  0  0  0  0  0  0  0
   -0.7500   -1.2990    0.0000 C   0  0  0  0  0  0  0  0  0  0  0  0
   -1.5000    0.0000    0.0000 N   0  0  0  0  0  0  0  0  0  0  0  0
   -0.7500    1.2990    0.0000 C   0  0  0  0  0  0  0  0  0  0  0  0
    0.7500    1.2990    0.0000 C   0  0  0  0  0  0  0  0  0  0  0  0
    6.0000    0.0000    0.0000 N   0  0  0  0  0  0  0  0  0  0  0  0
    7.5000    0.0000    0.0000 R   0  0  0  0  0  1  0  0  0  1  0  0
    7.5000   -2.5981    0.0000 R   0  0  0  0  0  1  0  0  0  2  0  0
  1  2  2  0
  2  3  1  0
  3  4  1  0
  4  5  1  0
  5  6  1  0
  6  7  2  0
  7  8  1  0
  8  9  2  0
  9 10  1  0
 10 11  2  0
  3 12  1  0
 12 13  1  0
  2 14  1  0
 11  6  1  0
M  END
>  <id>  (331) 
f035e914-d03c-439d-bbf3-982b60af2a7f

>  <Version>  (331) 
0

>  <Alias>  (331) 
rac-h4Pyr

>  <Type>  (331) 
amino_acid

>  <Smiles>  (331) 
O=C(C(CCc1ccncc1)N[*:1])[*:2]

>  <ProtectedSmiles>  (331) 
O=C(NC(CCc1ccncc1)C(=O)O)OCC1c2ccccc2-c2ccccc21

>  <CAS>  (331) 
273222-02-9

>  <User>  (331) 
Sevan.habeshian@orbismedicines.com

>  <StereoComment>  (331) 
as drawn

>  <Name>  (331) 
N/A

>  <Code>  (331) 
rac-h4Pyr

>  <AliasLowerCase>  (331) 
rac-h4pyr

>  <LatestVersion>  (331) 
0.0

>  <createdAt>  (331) 
2026-02-13T09:56:35.753Z

>  <updatedAt>  (331) 
2026-02-13T09:56:35.753Z

>  <NumRotatableBonds>  (331) 
5

>  <is_N_methyl>  (331) 
False

>  <is_a_methyl>  (331) 
False

>  <is_alpha_aa>  (331) 
True

>  <is_beta_aa>  (331) 
False

>  <is_S100_aa>  (331) 
False

>  <Murcko_SMILES>  (331) 
c1ccncc1

$$$$

     RDKit          2D

 13 14  0  0  0  0  0  0  0  0999 V2000
    0.7500   -3.8971    0.0000 O   0  0  0  0  0  0  0  0  0  0  0  0
    1.5000   -2.5981    0.0000 C   0  0  0  0  0  0  0  0  0  0  0  0
    0.7500   -1.2990    0.0000 C   0  0  0  0  0  0  0  0  0  0  0  0
    1.5000    0.0000    0.0000 C   0  0  0  0  0  0  0  0  0  0  0  0
    0.7500    1.2990    0.0000 C   0  0  0  0  0  0  0  0  0  0  0  0
   -0.7500    1.2990    0.0000 C   0  0  0  0  0  0  0  0  0  0  0  0
   -1.5000    2.5981    0.0000 N   0  0  0  0  0  0  0  0  0  0  0  0
   -0.7500    3.8971    0.0000 R   0  0  0  0  0  1  0  0  0  1  0  0
   -1.5000    0.0000    0.0000 C   0  0  0  0  0  0  0  0  0  0  0  0
   -0.7500   -1.2990    0.0000 C   0  0  0  0  0  0  0  0  0  0  0  0
   -0.3828    0.5621    0.0000 C   0  0  0  0  0  0  0  0  0  0  0  0
    0.2954   -0.6125    0.0000 C   0  0  0  0  0  0  0  0  0  0  0  0
    3.0000   -2.5981    0.0000 R   0  0  0  0  0  1  0  0  0  2  0  0
  1  2  2  0
  2  3  1  0
  3  4  1  0
  4  5  1  0
  5  6  1  0
  6  7  1  0
  7  8  1  0
  6  9  1  0
  9 10  1  0
  6 11  1  0
 11 12  1  0
  2 13  1  0
 10  3  1  0
 12  3  1  0
M  END
>  <id>  (332) 
b992b62e-a3f3-45ac-ad14-bbe125acb293

>  <Version>  (332) 
0

>  <Alias>  (332) 
biCyc-2,2,2-Oct

>  <Type>  (332) 
amino_acid

>  <Smiles>  (332) 
O=C(C12CCC(N[*:1])(CC1)CC2)[*:2]

>  <ProtectedSmiles>  (332) 
O=C(NC12CCC(C(=O)O)(CC1)CC2)OCC1c2ccccc2-c2ccccc21

>  <CAS>  (332) 
1996539-58-2

>  <User>  (332) 
emile.b

>  <StereoComment>  (332) 
as drawn

>  <Name>  (332) 
4-(9H-fluoren-9-ylmethoxycarbonylamino)bicyclo[2.2.2]octane-1-carboxylic acid

>  <Code>  (332) 
biCyc-2,2,2-Oct

>  <AliasLowerCase>  (332) 
bicyc-2,2,2-oct

>  <LatestVersion>  (332) 
0.0

>  <createdAt>  (332) 
2026-01-14T11:33:39.431Z

>  <updatedAt>  (332) 
2026-01-14T11:33:39.431Z

>  <NumRotatableBonds>  (332) 
2

>  <is_N_methyl>  (332) 
False

>  <is_a_methyl>  (332) 
False

>  <is_alpha_aa>  (332) 
False

>  <is_beta_aa>  (332) 
False

>  <is_S100_aa>  (332) 
False

>  <Murcko_SMILES>  (332) 
C1CC2CCC1CC2

$$$$

     RDKit          2D

 11 10  0  0  0  0  0  0  0  0999 V2000
    7.7942   -0.0000    0.0000 C   0  0  0  0  0  0  0  0  0  0  0  0
    6.4952    0.7500    0.0000 C   0  0  0  0  0  0  0  0  0  0  0  0
    6.4952    2.2500    0.0000 C   0  0  0  0  0  0  0  0  0  0  0  0
    5.1962   -0.0000    0.0000 C   0  0  0  0  0  0  0  0  0  0  0  0
    3.8971    0.7500    0.0000 C   0  0  0  0  0  0  0  0  0  0  0  0
    2.5981   -0.0000    0.0000 C   0  0  0  0  0  0  0  0  0  0  0  0
    1.2990    0.7500    0.0000 N   0  0  0  0  0  0  0  0  0  0  0  0
    0.0000    0.0000    0.0000 R   0  0  0  0  0  1  0  0  0  1  0  0
    3.8971    2.2500    0.0000 C   0  0  0  0  0  0  0  0  0  0  0  0
    2.5981    3.0000    0.0000 O   0  0  0  0  0  0  0  0  0  0  0  0
    5.1962    3.0000    0.0000 R   0  0  0  0  0  1  0  0  0  2  0  0
  1  2  1  0
  2  3  1  0
  2  4  1  0
  4  5  1  0
  5  6  1  0
  6  7  1  0
  7  8  1  0
  5  9  1  0
  9 10  2  0
  9 11  1  0
M  END
>  <id>  (333) 
c8b6189d-dc0c-46fb-86a4-b95e1b50900f

>  <Version>  (333) 
0

>  <Alias>  (333) 
2N4MePentOH

>  <Type>  (333) 
amino_acid

>  <Smiles>  (333) 
CC(C)CC(CN[*:1])C(=O)[*:2]

>  <ProtectedSmiles>  (333) 
CC(C)CC(CNC(=O)OCC1c2ccccc2-c2ccccc21)C(=O)O

>  <CAS>  (333) 
1501689-36-6

>  <User>  (333) 
Sevan.habeshian@orbismedicines.com

>  <StereoComment>  (333) 
as drawn

>  <Name>  (333) 
N/A

>  <Code>  (333) 
2N4MePentOH

>  <AliasLowerCase>  (333) 
2n4mepentoh

>  <LatestVersion>  (333) 
0.0

>  <createdAt>  (333) 
2026-02-13T09:56:35.395Z

>  <updatedAt>  (333) 
2026-02-13T09:56:35.395Z

>  <NumRotatableBonds>  (333) 
5

>  <is_N_methyl>  (333) 
False

>  <is_a_methyl>  (333) 
False

>  <is_alpha_aa>  (333) 
False

>  <is_beta_aa>  (333) 
True

>  <is_S100_aa>  (333) 
False

>  <Murcko_SMILES>  (333) 


$$$$

     RDKit          2D

 13 13  0  0  0  0  0  0  0  0999 V2000
    3.7500   -1.2990    0.0000 C   0  0  0  0  0  0  0  0  0  0  0  0
    3.0000    0.0000    0.0000 C   0  0  0  0  0  0  0  0  0  0  0  0
    3.7500    1.2990    0.0000 N   0  0  0  0  0  0  0  0  0  0  0  0
    5.2500    1.2990    0.0000 R   0  0  0  0  0  1  0  0  0  1  0  0
    1.5000    0.0000    0.0000 C   0  0  0  0  0  0  0  0  0  0  0  0
    0.7500   -1.2990    0.0000 C   0  0  0  0  0  0  0  0  0  0  0  0
   -0.7500   -1.2990    0.0000 C   0  0  0  0  0  0  0  0  0  0  0  0
   -1.5000    0.0000    0.0000 C   0  0  0  0  0  0  0  0  0  0  0  0
   -3.0000    0.0000    0.0000 C   0  0  0  0  0  0  0  0  0  0  0  0
   -3.7500   -1.2990    0.0000 O   0  0  0  0  0  0  0  0  0  0  0  0
   -3.7500    1.2990    0.0000 R   0  0  0  0  0  1  0  0  0  2  0  0
   -0.7500    1.2990    0.0000 C   0  0  0  0  0  0  0  0  0  0  0  0
    0.7500    1.2990    0.0000 C   0  0  0  0  0  0  0  0  0  0  0  0
  2  1  1  1
  2  3  1  0
  3  4  1  0
  2  5  1  0
  5  6  2  0
  6  7  1  0
  7  8  2  0
  8  9  1  0
  9 10  2  0
  9 11  1  0
  8 12  1  0
 12 13  2  0
 13  5  1  0
M  END
>  <id>  (334) 
d27faeb6-2d08-484e-8919-5e45b783eba5

>  <Version>  (334) 
0

>  <Alias>  (334) 
4AmEtBzOH

>  <Type>  (334) 
amino_acid

>  <Smiles>  (334) 
C[C@H](N[*:1])c1ccc(C(=O)[*:2])cc1

>  <ProtectedSmiles>  (334) 
C[C@H](NC(=O)OCC1c2ccccc2-c2ccccc21)c1ccc(C(=O)O)cc1

>  <CAS>  (334) 
2171287-88-8

>  <User>  (334) 
Sevan.habeshian@orbismedicines.com

>  <StereoComment>  (334) 
as drawn

>  <Name>  (334) 
N/A

>  <Code>  (334) 
4AmEtBzOH

>  <AliasLowerCase>  (334) 
4ametbzoh

>  <LatestVersion>  (334) 
0.0

>  <createdAt>  (334) 
2026-02-13T09:56:35.540Z

>  <updatedAt>  (334) 
2026-02-13T09:56:35.540Z

>  <NumRotatableBonds>  (334) 
3

>  <is_N_methyl>  (334) 
False

>  <is_a_methyl>  (334) 
False

>  <is_alpha_aa>  (334) 
False

>  <is_beta_aa>  (334) 
False

>  <is_S100_aa>  (334) 
False

>  <Murcko_SMILES>  (334) 
c1ccccc1

$$$$

     RDKit          2D

 15 16  0  0  0  0  0  0  0  0999 V2000
    2.2340    6.4173    0.0000 O   0  0  0  0  0  0  0  0  0  0  0  0
    2.6761    4.9840    0.0000 C   0  0  0  0  0  0  0  0  0  0  0  0
    1.6559    3.8844    0.0000 C   0  0  0  0  0  0  0  0  0  0  0  0
    0.1935    4.2182    0.0000 C   0  0  0  0  0  0  0  0  0  0  0  0
   -0.8268    3.1186    0.0000 C   0  0  0  0  0  0  0  0  0  0  0  0
   -0.3846    1.6852    0.0000 C   0  0  0  0  0  0  0  0  0  0  0  0
    1.0777    1.3515    0.0000 C   0  0  0  0  0  0  0  0  0  0  0  0
    2.0980    2.4510    0.0000 C   0  0  0  0  0  0  0  0  0  0  0  0
    1.7286    0.0000    0.0000 O   0  0  0  0  0  0  0  0  0  0  0  0
    1.0777   -1.3515    0.0000 C   0  0  0  0  0  0  0  0  0  0  0  0
   -0.3846   -1.6852    0.0000 C   0  0  0  0  0  0  0  0  0  0  0  0
   -1.5574   -0.7500    0.0000 N   0  0  0  0  0  0  0  0  0  0  0  0
   -2.9088   -1.4008    0.0000 R   0  0  0  0  0  1  0  0  0  1  0  0
   -1.5574    0.7500    0.0000 C   0  0  0  0  0  0  0  0  0  0  0  0
    4.1385    4.6502    0.0000 R   0  0  0  0  0  1  0  0  0  2  0  0
  1  2  2  0
  2  3  1  0
  3  4  2  0
  4  5  1  0
  5  6  2  0
  6  7  1  0
  7  8  2  0
  7  9  1  0
  9 10  1  0
 10 11  1  0
 11 12  1  0
 12 13  1  0
 12 14  1  0
  2 15  1  0
  8  3  1  0
 14  6  1  0
M  END
>  <id>  (335) 
f2e3594f-f162-41f0-880a-8f8931f5c893

>  <Version>  (335) 
0

>  <Alias>  (335) 
THBzOxaz

>  <Type>  (335) 
amino_acid

>  <Smiles>  (335) 
O=C(c1ccc2c(c1)OCCN([*:1])C2)[*:2]

>  <ProtectedSmiles>  (335) 
O=C(O)c1ccc2c(c1)OCCN(C(=O)OCC1c3ccccc3-c3ccccc31)C2

>  <CAS>  (335) 
2138145-57-8

>  <User>  (335) 
gontran.s

>  <StereoComment>  (335) 
as drawn

>  <Name>  (335) 
4-{[(9H-fluoren-9-yl)methoxy]carbonyl}-2,3,4,5-tetrahydro-1,4-benzoxazepine-8-carboxylic acid

>  <Code>  (335) 
THBzOxaz

>  <AliasLowerCase>  (335) 
thbzoxaz

>  <LatestVersion>  (335) 
0.0

>  <createdAt>  (335) 
2026-01-14T11:38:35.770Z

>  <updatedAt>  (335) 
2026-01-14T11:38:35.770Z

>  <NumRotatableBonds>  (335) 
1

>  <is_N_methyl>  (335) 
False

>  <is_a_methyl>  (335) 
False

>  <is_alpha_aa>  (335) 
False

>  <is_beta_aa>  (335) 
False

>  <is_S100_aa>  (335) 
False

>  <Murcko_SMILES>  (335) 
c1ccc2c(c1)CNCCO2

$$$$

     RDKit          2D

 15 16  0  0  0  0  0  0  0  0999 V2000
    3.0613   -7.3456    0.0000 O   0  0  0  0  0  0  0  0  0  0  0  0
    1.8478   -6.4639    0.0000 C   0  0  0  0  0  0  0  0  0  0  0  0
    2.0046   -4.9721    0.0000 C   0  0  0  0  0  0  0  0  0  0  0  0
    3.3037   -4.2221    0.0000 C   0  0  0  0  0  0  0  0  0  0  0  0
    2.9918   -2.7549    0.0000 O   0  0  0  0  0  0  0  0  0  0  0  0
    1.5000   -2.5981    0.0000 C   0  0  0  0  0  0  0  0  0  0  0  0
    0.7500   -1.2990    0.0000 C   0  0  0  0  0  0  0  0  0  0  0  0
    1.5000    0.0000    0.0000 C   0  0  0  0  0  0  0  0  0  0  0  0
    0.7500    1.2990    0.0000 C   0  0  0  0  0  0  0  0  0  0  0  0
   -0.7500    1.2990    0.0000 N   0  0  0  0  0  0  0  0  0  0  0  0
   -1.5000    2.5981    0.0000 R   0  0  0  0  0  1  0  0  0  1  0  0
   -1.5000    0.0000    0.0000 C   0  0  0  0  0  0  0  0  0  0  0  0
   -0.7500   -1.2990    0.0000 C   0  0  0  0  0  0  0  0  0  0  0  0
    0.8899   -3.9684    0.0000 N   0  0  0  0  0  0  0  0  0  0  0  0
    0.4775   -7.0740    0.0000 R   0  0  0  0  0  1  0  0  0  2  0  0
  1  2  2  0
  2  3  1  0
  3  4  2  0
  4  5  1  0
  5  6  1  0
  6  7  1  0
  7  8  1  0
  8  9  1  0
  9 10  1  0
 10 11  1  0
 10 12  1  0
 12 13  1  0
  6 14  2  0
  2 15  1  0
 14  3  1  0
 13  7  1  0
M  END
>  <id>  (336) 
3bbd605b-2247-4424-9ba7-4f86bde40699

>  <Version>  (336) 
0

>  <Alias>  (336) 
1Pip_2Oxa

>  <Type>  (336) 
amino_acid

>  <Smiles>  (336) 
O=C(c1coc(C2CCN([*:1])CC2)n1)[*:2]

>  <ProtectedSmiles>  (336) 
O=C(O)c1coc(C2CCN(C(=O)OCC3c4ccccc4-c4ccccc43)CC2)n1

>  <CAS>  (336) 
2260930-99-0

>  <User>  (336) 
sevan.h

>  <StereoComment>  (336) 
as drawn

>  <Name>  (336) 
2-(1-{[(9H-fluoren-9-yl)methoxy]carbonyl}piperidin-4-yl)-1,3-oxazole-4-carboxylic acid

>  <Code>  (336) 
1Pip_2Oxa

>  <AliasLowerCase>  (336) 
1pip_2oxa

>  <LatestVersion>  (336) 
0.0

>  <createdAt>  (336) 
2026-01-14T11:32:53.140Z

>  <updatedAt>  (336) 
2026-01-14T11:32:53.140Z

>  <NumRotatableBonds>  (336) 
2

>  <is_N_methyl>  (336) 
False

>  <is_a_methyl>  (336) 
False

>  <is_alpha_aa>  (336) 
False

>  <is_beta_aa>  (336) 
False

>  <is_S100_aa>  (336) 
False

>  <Murcko_SMILES>  (336) 
c1coc(C2CCNCC2)n1

$$$$

     RDKit          2D

 12 11  0  0  0  0  0  0  0  0999 V2000
    7.7942   -0.0000    0.0000 C   0  0  0  0  0  0  0  0  0  0  0  0
    6.4952    0.7500    0.0000 N   0  0  0  0  0  0  0  0  0  0  0  0
    6.4952    2.2500    0.0000 C   0  0  0  0  0  0  0  0  0  0  0  0
    5.1962   -0.0000    0.0000 C   0  0  0  0  0  0  0  0  0  0  0  0
    5.1962   -1.5000    0.0000 O   0  0  0  0  0  0  0  0  0  0  0  0
    3.8971    0.7500    0.0000 C   0  0  0  0  0  0  0  0  0  0  0  0
    2.5981   -0.0000    0.0000 C   0  0  0  0  0  0  0  0  0  0  0  0
    1.2990    0.7500    0.0000 N   0  0  0  0  0  0  0  0  0  0  0  0
    0.0000    0.0000    0.0000 R   0  0  0  0  0  1  0  0  0  1  0  0
    2.5981   -1.5000    0.0000 C   0  0  0  0  0  0  0  0  0  0  0  0
    1.2990   -2.2500    0.0000 O   0  0  0  0  0  0  0  0  0  0  0  0
    3.8971   -2.2500    0.0000 R   0  0  0  0  0  1  0  0  0  2  0  0
  1  2  1  0
  2  3  1  0
  2  4  1  0
  4  5  2  0
  4  6  1  0
  7  6  1  6
  7  8  1  0
  8  9  1  0
  7 10  1  0
 10 11  2  0
 10 12  1  0
M  END
>  <id>  (337) 
d61e53cb-72ea-4a99-b34e-077406dc5ecd

>  <Version>  (337) 
0

>  <Alias>  (337) 
D-Asn(NMe2)

>  <Type>  (337) 
amino_acid

>  <Smiles>  (337) 
CN(C)C(=O)C[C@@H](N[*:1])C(=O)[*:2]

>  <ProtectedSmiles>  (337) 
CN(C)C(=O)C[C@@H](NC(=O)OCC1c2ccccc2-c2ccccc21)C(=O)O

>  <CAS>  (337) 
2770452-77-0

>  <User>  (337) 
sevan.h

>  <StereoComment>  (337) 
as drawn

>  <Name>  (337) 
(2R)-4-(dimethylamino)-2-(Fmoc amino)-4-oxo-butanoic acid

>  <Code>  (337) 
D-Asn(NMe2)

>  <AliasLowerCase>  (337) 
d-asn(nme2)

>  <LatestVersion>  (337) 
0.0

>  <createdAt>  (337) 
2026-01-14T11:38:00.280Z

>  <updatedAt>  (337) 
2026-01-14T11:38:00.280Z

>  <NumRotatableBonds>  (337) 
4

>  <is_N_methyl>  (337) 
False

>  <is_a_methyl>  (337) 
False

>  <is_alpha_aa>  (337) 
True

>  <is_beta_aa>  (337) 
False

>  <is_S100_aa>  (337) 
False

>  <Murcko_SMILES>  (337) 


$$$$

     RDKit          2D

 12 12  0  0  0  0  0  0  0  0999 V2000
    3.7500    1.2990    0.0000 O   0  0  0  0  0  0  0  0  0  0  0  0
    3.0000    0.0000    0.0000 C   0  0  0  0  0  0  0  0  0  0  0  0
    1.5000    0.0000    0.0000 C   0  0  0  0  0  0  0  0  0  0  0  0
    0.7500   -1.2990    0.0000 C   0  0  0  0  0  0  0  0  0  0  0  0
   -0.7500   -1.2990    0.0000 C   0  0  0  0  0  0  0  0  0  0  0  0
   -0.4895   -2.7762    0.0000 F   0  0  0  0  0  0  0  0  0  0  0  0
   -2.1595   -1.8121    0.0000 F   0  0  0  0  0  0  0  0  0  0  0  0
   -1.5000    0.0000    0.0000 C   0  0  0  0  0  0  0  0  0  0  0  0
   -0.7500    1.2990    0.0000 C   0  0  0  0  0  0  0  0  0  0  0  0
    0.7500    1.2990    0.0000 N   0  0  0  0  0  0  0  0  0  0  0  0
    1.5000    2.5981    0.0000 R   0  0  0  0  0  1  0  0  0  1  0  0
    3.7500   -1.2990    0.0000 R   0  0  0  0  0  1  0  0  0  2  0  0
  1  2  2  0
  3  2  1  6
  3  4  1  0
  4  5  1  0
  5  6  1  0
  5  7  1  0
  5  8  1  0
  8  9  1  0
  9 10  1  0
 10 11  1  0
  2 12  1  0
 10  3  1  0
M  END
>  <id>  (338) 
a0d2adbd-9bba-4d80-987d-afb08b0d5bcc

>  <Version>  (338) 
0

>  <Alias>  (338) 
(2S)-4,4-diFPip

>  <Type>  (338) 
amino_acid

>  <Smiles>  (338) 
O=C([C@@H]1CC(F)(F)CCN1[*:1])[*:2]

>  <ProtectedSmiles>  (338) 
O=C(O)[C@@H]1CC(F)(F)CCN1C(=O)OCC1c2ccccc2-c2ccccc21

>  <CAS>  (338) 
1221793-52-7

>  <User>  (338) 
mischa.s

>  <StereoComment>  (338) 
as drawn

>  <Name>  (338) 
(2S)-1-{[(9H-fluoren-9-yl)methoxy]carbonyl}-4,4-difluoropiperidine-2-carboxylic acid

>  <Code>  (338) 
(2S)-4,4-diFPip

>  <AliasLowerCase>  (338) 
(2s)-4,4-difpip

>  <LatestVersion>  (338) 
0.0

>  <createdAt>  (338) 
2026-01-14T11:34:53.830Z

>  <updatedAt>  (338) 
2026-01-14T11:34:53.830Z

>  <NumRotatableBonds>  (338) 
1

>  <is_N_methyl>  (338) 
False

>  <is_a_methyl>  (338) 
False

>  <is_alpha_aa>  (338) 
True

>  <is_beta_aa>  (338) 
False

>  <is_S100_aa>  (338) 
False

>  <Murcko_SMILES>  (338) 
C1CCNCC1

$$$$

     RDKit          2D

 12 12  0  0  0  0  0  0  0  0999 V2000
    2.7760    0.0000    0.0000 C   0  0  0  0  0  0  0  0  0  0  0  0
    1.2760    0.0000    0.0000 N   0  0  0  0  0  0  0  0  0  0  0  0
    0.3943    1.2135    0.0000 C   0  0  0  0  0  0  0  0  0  0  0  0
   -1.0323    0.7500    0.0000 C   0  0  0  0  0  0  0  0  0  0  0  0
   -2.2458    1.6317    0.0000 C   0  0  0  0  0  0  0  0  0  0  0  0
   -3.6161    1.0216    0.0000 N   0  0  0  0  0  0  0  0  0  0  0  0
   -4.8297    1.9033    0.0000 R   0  0  0  0  0  1  0  0  0  1  0  0
   -2.0890    3.1235    0.0000 C   0  0  0  0  0  0  0  0  0  0  0  0
   -0.7187    3.7336    0.0000 O   0  0  0  0  0  0  0  0  0  0  0  0
   -3.3025    4.0051    0.0000 R   0  0  0  0  0  1  0  0  0  2  0  0
   -1.0323   -0.7500    0.0000 C   0  0  0  0  0  0  0  0  0  0  0  0
    0.3943   -1.2135    0.0000 N   0  0  0  0  0  0  0  0  0  0  0  0
  1  2  1  0
  2  3  1  0
  3  4  2  0
  4  5  1  0
  5  6  1  0
  6  7  1  0
  5  8  1  0
  8  9  2  0
  8 10  1  0
  4 11  1  0
 11 12  2  0
 12  2  1  0
M  END
>  <id>  (339) 
856f1a12-bb2b-4daf-bcd9-dae5df76d3c8

>  <Version>  (339) 
0

>  <Alias>  (339) 
MePzAcA

>  <Type>  (339) 
amino_acid

>  <Smiles>  (339) 
Cn1cc(C(N[*:1])C(=O)[*:2])cn1

>  <ProtectedSmiles>  (339) 
Cn1cc(C(NC(=O)OCC2c3ccccc3-c3ccccc32)C(=O)O)cn1

>  <CAS>  (339) 
1543701-81-0

>  <User>  (339) 
Sevan.habeshian@orbismedicines.com

>  <StereoComment>  (339) 
as drawn

>  <Name>  (339) 
N/A

>  <Code>  (339) 
MePzAcA

>  <AliasLowerCase>  (339) 
mepzaca

>  <LatestVersion>  (339) 
0.0

>  <createdAt>  (339) 
2026-02-13T09:56:35.483Z

>  <updatedAt>  (339) 
2026-02-13T09:56:35.483Z

>  <NumRotatableBonds>  (339) 
3

>  <is_N_methyl>  (339) 
False

>  <is_a_methyl>  (339) 
False

>  <is_alpha_aa>  (339) 
True

>  <is_beta_aa>  (339) 
False

>  <is_S100_aa>  (339) 
False

>  <Murcko_SMILES>  (339) 
c1cn[nH]c1

$$$$

     RDKit          2D

 15 16  0  0  0  0  0  0  0  0999 V2000
    3.7500   -1.2990    0.0000 O   0  0  0  0  0  0  0  0  0  0  0  0
    3.0000   -2.5981    0.0000 C   0  0  0  0  0  0  0  0  0  0  0  0
    1.5000   -2.5981    0.0000 C   0  0  0  0  0  0  0  0  0  0  0  0
    0.7500   -3.8971    0.0000 C   0  0  0  0  0  0  0  0  0  0  0  0
   -0.7500   -3.8971    0.0000 C   0  0  0  0  0  0  0  0  0  0  0  0
   -1.5000   -2.5981    0.0000 C   0  0  0  0  0  0  0  0  0  0  0  0
   -3.0000   -2.5981    0.0000 F   0  0  0  0  0  0  0  0  0  0  0  0
   -0.7500   -1.2990    0.0000 C   0  0  0  0  0  0  0  0  0  0  0  0
    0.7500   -1.2990    0.0000 C   0  0  0  0  0  0  0  0  0  0  0  0
    1.5000    0.0000    0.0000 C   0  0  0  0  0  0  0  0  0  0  0  0
    0.7500    1.2990    0.0000 N   0  0  0  0  0  0  0  0  0  0  0  0
    1.5000    2.5981    0.0000 R   0  0  0  0  0  1  0  0  0  1  0  0
   -0.7500    1.2990    0.0000 C   0  0  0  0  0  0  0  0  0  0  0  0
   -1.5000    0.0000    0.0000 C   0  0  0  0  0  0  0  0  0  0  0  0
    3.7500   -3.8971    0.0000 R   0  0  0  0  0  1  0  0  0  2  0  0
  1  2  2  0
  2  3  1  0
  3  4  2  0
  4  5  1  0
  5  6  2  0
  6  7  1  0
  6  8  1  0
  8  9  2  0
  9 10  1  0
 10 11  1  0
 11 12  1  0
 11 13  1  0
 13 14  1  0
  2 15  1  0
  9  3  1  0
 14  8  1  0
M  END
>  <id>  (340) 
3e4060f5-a529-4e16-8a56-e5e4c979853b

>  <Version>  (340) 
0

>  <Alias>  (340) 
5FTHIQCA

>  <Type>  (340) 
amino_acid

>  <Smiles>  (340) 
O=C(c1ccc(F)c2c1CN([*:1])CC2)[*:2]

>  <ProtectedSmiles>  (340) 
O=C(O)c1ccc(F)c2c1CN(C(=O)OCC1c3ccccc3-c3ccccc31)CC2

>  <CAS>  (340) 
2138004-27-8

>  <User>  (340) 
Sevan.habeshian@orbismedicines.com

>  <StereoComment>  (340) 
as drawn

>  <Name>  (340) 
N/A

>  <Code>  (340) 
5FTHIQCA

>  <AliasLowerCase>  (340) 
5fthiqca

>  <LatestVersion>  (340) 
0.0

>  <createdAt>  (340) 
2026-02-13T09:56:36.318Z

>  <updatedAt>  (340) 
2026-02-13T09:56:36.318Z

>  <NumRotatableBonds>  (340) 
1

>  <is_N_methyl>  (340) 
False

>  <is_a_methyl>  (340) 
False

>  <is_alpha_aa>  (340) 
False

>  <is_beta_aa>  (340) 
False

>  <is_S100_aa>  (340) 
False

>  <Murcko_SMILES>  (340) 
c1ccc2c(c1)CCNC2

$$$$

     RDKit          2D

 12 12  0  0  0  0  0  0  0  0999 V2000
    3.7500    1.2990    0.0000 O   0  0  0  0  0  0  0  0  0  0  0  0
    3.0000    0.0000    0.0000 C   0  0  0  0  0  0  0  0  0  0  0  0
    1.5000    0.0000    0.0000 C   0  0  0  0  0  0  0  0  0  0  0  0
    0.7500   -1.2990    0.0000 C   0  0  0  0  0  0  0  0  0  0  0  0
   -0.7500   -1.2990    0.0000 C   0  0  0  0  0  0  0  0  0  0  0  0
   -1.5000    0.0000    0.0000 C   0  0  0  0  0  0  0  0  0  0  0  0
   -3.0000    0.0000    0.0000 N   0  0  0  0  0  0  0  0  0  0  0  0
   -3.7500    1.2990    0.0000 R   0  0  0  0  0  1  0  0  0  1  0  0
   -0.7500    1.2990    0.0000 C   0  0  0  0  0  0  0  0  0  0  0  0
    0.7500    1.2990    0.0000 C   0  0  0  0  0  0  0  0  0  0  0  0
    1.5000    2.5981    0.0000 Cl  0  0  0  0  0  0  0  0  0  0  0  0
    3.7500   -1.2990    0.0000 R   0  0  0  0  0  1  0  0  0  2  0  0
  1  2  2  0
  2  3  1  0
  3  4  2  0
  4  5  1  0
  5  6  2  0
  6  7  1  0
  7  8  1  0
  6  9  1  0
  9 10  2  0
 10 11  1  0
  2 12  1  0
 10  3  1  0
M  END
>  <id>  (341) 
fa31a435-b364-4582-8727-6c66beda5981

>  <Version>  (341) 
0

>  <Alias>  (341) 
(2Cl)-4Abz

>  <Type>  (341) 
amino_acid

>  <Smiles>  (341) 
O=C(c1ccc(N[*:1])cc1Cl)[*:2]

>  <ProtectedSmiles>  (341) 
O=C(Nc1ccc(C(=O)O)c(Cl)c1)OCC1c2ccccc2-c2ccccc21

>  <CAS>  (341) 
186320-13-8

>  <User>  (341) 
gontran.s

>  <StereoComment>  (341) 
as drawn

>  <Name>  (341) 
Fmoc-4-amino-2-chlorobenzoic acid

>  <Code>  (341) 
(2Cl)-4Abz

>  <AliasLowerCase>  (341) 
(2cl)-4abz

>  <LatestVersion>  (341) 
0.0

>  <createdAt>  (341) 
2026-01-14T11:36:53.925Z

>  <updatedAt>  (341) 
2026-01-14T11:36:53.925Z

>  <NumRotatableBonds>  (341) 
2

>  <is_N_methyl>  (341) 
False

>  <is_a_methyl>  (341) 
False

>  <is_alpha_aa>  (341) 
False

>  <is_beta_aa>  (341) 
False

>  <is_S100_aa>  (341) 
False

>  <Murcko_SMILES>  (341) 
c1ccccc1

$$$$

     RDKit          2D

 15 15  0  0  0  0  0  0  0  0999 V2000
    8.2500   -1.2990    0.0000 O   0  0  0  0  0  0  0  0  0  0  0  0
    7.5000   -2.5981    0.0000 C   0  0  0  0  0  0  0  0  0  0  0  0
    6.0000   -2.5981    0.0000 C   0  0  0  0  0  0  0  0  0  0  0  0
    5.2500   -1.2990    0.0000 C   0  0  0  0  0  0  0  0  0  0  0  0
    3.7500   -1.2990    0.0000 C   0  0  0  0  0  0  0  0  0  0  0  0
    3.0000    0.0000    0.0000 C   0  0  0  0  0  0  0  0  0  0  0  0
    1.5000    0.0000    0.0000 C   0  0  0  0  0  0  0  0  0  0  0  0
    0.7500   -1.2990    0.0000 C   0  0  0  0  0  0  0  0  0  0  0  0
   -0.7500   -1.2990    0.0000 C   0  0  0  0  0  0  0  0  0  0  0  0
   -1.5000    0.0000    0.0000 C   0  0  0  0  0  0  0  0  0  0  0  0
   -0.7500    1.2990    0.0000 C   0  0  0  0  0  0  0  0  0  0  0  0
    0.7500    1.2990    0.0000 C   0  0  0  0  0  0  0  0  0  0  0  0
    5.2500   -3.8971    0.0000 N   0  0  0  0  0  0  0  0  0  0  0  0
    6.0000   -5.1962    0.0000 R   0  0  0  0  0  1  0  0  0  1  0  0
    8.2500   -3.8971    0.0000 R   0  0  0  0  0  1  0  0  0  2  0  0
  1  2  2  0
  2  3  1  0
  3  4  1  1
  4  5  1  0
  5  6  1  0
  6  7  1  0
  7  8  2  0
  8  9  1  0
  9 10  2  0
 10 11  1  0
 11 12  2  0
  3 13  1  0
 13 14  1  0
  2 15  1  0
 12  7  1  0
M  END
>  <id>  (342) 
f7b2d5a7-2f66-41aa-ae7a-3581e80af33c

>  <Version>  (342) 
0

>  <Alias>  (342) 
(2S)-5PhPA

>  <Type>  (342) 
amino_acid

>  <Smiles>  (342) 
O=C([C@H](CCCc1ccccc1)N[*:1])[*:2]

>  <ProtectedSmiles>  (342) 
O=C(N[C@@H](CCCc1ccccc1)C(=O)O)OCC1c2ccccc2-c2ccccc21

>  <CAS>  (342) 
959578-11-1

>  <User>  (342) 
mischa.s

>  <StereoComment>  (342) 
as drawn

>  <Name>  (342) 
(S)-2-((((9H-Fluoren-9-yl)methoxy)carbonyl)amino)-5-phenylpentanoic acid

>  <Code>  (342) 
(2S)-5PhPA

>  <AliasLowerCase>  (342) 
(2s)-5phpa

>  <LatestVersion>  (342) 
0.0

>  <createdAt>  (342) 
2026-01-14T11:33:23.105Z

>  <updatedAt>  (342) 
2026-01-14T11:33:23.105Z

>  <NumRotatableBonds>  (342) 
6

>  <is_N_methyl>  (342) 
False

>  <is_a_methyl>  (342) 
False

>  <is_alpha_aa>  (342) 
True

>  <is_beta_aa>  (342) 
False

>  <is_S100_aa>  (342) 
False

>  <Murcko_SMILES>  (342) 
c1ccccc1

$$$$

     RDKit          2D

 11 11  0  0  0  0  0  0  0  0999 V2000
    3.7500    1.2990    0.0000 O   0  0  0  0  0  0  0  0  0  0  0  0
    3.0000    0.0000    0.0000 C   0  0  0  0  0  0  0  0  0  0  0  0
    1.5000    0.0000    0.0000 C   0  0  0  0  0  0  0  0  0  0  0  0
    0.7500   -1.2990    0.0000 C   0  0  0  0  0  0  0  0  0  0  0  0
   -0.7500   -1.2990    0.0000 C   0  0  0  0  0  0  0  0  0  0  0  0
   -1.5000    0.0000    0.0000 C   0  0  0  0  0  0  0  0  0  0  0  0
   -0.7500    1.2990    0.0000 C   0  0  0  0  0  0  0  0  0  0  0  0
    0.7500    1.2990    0.0000 C   0  0  0  0  0  0  0  0  0  0  0  0
    1.5000    2.5981    0.0000 N   0  0  0  0  0  0  0  0  0  0  0  0
    0.7500    3.8971    0.0000 R   0  0  0  0  0  1  0  0  0  1  0  0
    3.7500   -1.2990    0.0000 R   0  0  0  0  0  1  0  0  0  2  0  0
  1  2  2  0
  2  3  1  0
  3  4  2  0
  4  5  1  0
  5  6  2  0
  6  7  1  0
  7  8  2  0
  8  9  1  0
  9 10  1  0
  2 11  1  0
  8  3  1  0
M  END
>  <id>  (343) 
902b2298-50e8-4a78-a2a7-abf87fa1d9c7

>  <Version>  (343) 
0

>  <Alias>  (343) 
2Abz

>  <Type>  (343) 
amino_acid

>  <Smiles>  (343) 
O=C(c1ccccc1N[*:1])[*:2]

>  <ProtectedSmiles>  (343) 
O=C(Nc1ccccc1C(=O)O)OCC1c2ccccc2-c2ccccc21

>  <CAS>  (343) 
150256-42-1

>  <User>  (343) 
sevan.h

>  <StereoComment>  (343) 
as drawn

>  <Name>  (343) 
Fmoc-2-aminobenzoic acid

>  <Code>  (343) 
2Abz

>  <AliasLowerCase>  (343) 
2abz

>  <LatestVersion>  (343) 
0.0

>  <createdAt>  (343) 
2026-01-14T12:17:03.671Z

>  <updatedAt>  (343) 
2026-01-14T12:17:03.671Z

>  <NumRotatableBonds>  (343) 
2

>  <is_N_methyl>  (343) 
False

>  <is_a_methyl>  (343) 
False

>  <is_alpha_aa>  (343) 
False

>  <is_beta_aa>  (343) 
False

>  <is_S100_aa>  (343) 
False

>  <Murcko_SMILES>  (343) 
c1ccccc1

$$$$

     RDKit          2D

 11 11  0  0  0  0  0  0  0  0999 V2000
    3.5260    1.2990    0.0000 O   0  0  0  0  0  0  0  0  0  0  0  0
    2.7760    0.0000    0.0000 C   0  0  0  0  0  0  0  0  0  0  0  0
    1.2760    0.0000    0.0000 C   0  0  0  0  0  0  0  0  0  0  0  0
    0.3943    1.2135    0.0000 C   0  0  0  0  0  0  0  0  0  0  0  0
   -1.0323    0.7500    0.0000 C   0  0  0  0  0  0  0  0  0  0  0  0
   -2.5241    0.5932    0.0000 F   0  0  0  0  0  0  0  0  0  0  0  0
   -1.3442    2.2172    0.0000 F   0  0  0  0  0  0  0  0  0  0  0  0
   -1.0323   -0.7500    0.0000 C   0  0  0  0  0  0  0  0  0  0  0  0
    0.3943   -1.2135    0.0000 N   0  0  0  0  0  0  0  0  0  0  0  0
    0.8578   -2.6401    0.0000 R   0  0  0  0  0  1  0  0  0  1  0  0
    3.5260   -1.2990    0.0000 R   0  0  0  0  0  1  0  0  0  2  0  0
  1  2  2  0
  3  2  1  1
  3  4  1  0
  4  5  1  0
  5  6  1  0
  5  7  1  0
  5  8  1  0
  8  9  1  0
  9 10  1  0
  2 11  1  0
  9  3  1  0
M  END
>  <id>  (344) 
706eb214-92b4-4d41-8929-417e55a1a447

>  <Version>  (344) 
0

>  <Alias>  (344) 
Pro(4,4-diF)

>  <Type>  (344) 
amino_acid

>  <Smiles>  (344) 
O=C([C@@H]1CC(F)(F)CN1[*:1])[*:2]

>  <ProtectedSmiles>  (344) 
O=C(O)[C@@H]1CC(F)(F)CN1C(=O)OCC1c2ccccc2-c2ccccc21

>  <CAS>  (344) 
203866-21-1

>  <User>  (344) 
mischa.s

>  <StereoComment>  (344) 
as drawn

>  <Name>  (344) 
(2S)-Fmoc-4,4-difluoro-pyrrolidine-2-carboxylic acid

>  <Code>  (344) 
Pro(4,4-diF)

>  <AliasLowerCase>  (344) 
pro(4,4-dif)

>  <LatestVersion>  (344) 
0.0

>  <createdAt>  (344) 
2026-01-14T11:36:35.236Z

>  <updatedAt>  (344) 
2026-01-14T11:36:35.236Z

>  <NumRotatableBonds>  (344) 
1

>  <is_N_methyl>  (344) 
False

>  <is_a_methyl>  (344) 
False

>  <is_alpha_aa>  (344) 
True

>  <is_beta_aa>  (344) 
False

>  <is_S100_aa>  (344) 
False

>  <Murcko_SMILES>  (344) 
C1CCNC1

$$$$

     RDKit          2D

 12 12  0  0  0  0  0  0  0  0999 V2000
    3.7500    1.2990    0.0000 O   0  0  0  0  0  0  0  0  0  0  0  0
    3.0000    0.0000    0.0000 C   0  0  0  0  0  0  0  0  0  0  0  0
    1.5000    0.0000    0.0000 C   0  0  0  0  0  0  0  0  0  0  0  0
    0.7500   -1.2990    0.0000 C   0  0  0  0  0  0  0  0  0  0  0  0
   -0.7500   -1.2990    0.0000 C   0  0  0  0  0  0  0  0  0  0  0  0
   -1.5000    0.0000    0.0000 C   0  0  0  0  0  0  0  0  0  0  0  0
   -3.0000    0.0000    0.0000 C   0  0  0  0  0  0  0  0  0  0  0  0
   -3.7500    1.2990    0.0000 N   0  0  0  0  0  0  0  0  0  0  0  0
   -5.2500    1.2990    0.0000 R   0  0  0  0  0  1  0  0  0  1  0  0
   -0.7500    1.2990    0.0000 N   0  0  0  0  0  0  0  0  0  0  0  0
    0.7500    1.2990    0.0000 C   0  0  0  0  0  0  0  0  0  0  0  0
    3.7500   -1.2990    0.0000 R   0  0  0  0  0  1  0  0  0  2  0  0
  1  2  2  0
  2  3  1  0
  3  4  2  0
  4  5  1  0
  5  6  2  0
  6  7  1  0
  7  8  1  0
  8  9  1  0
  6 10  1  0
 10 11  2  0
  2 12  1  0
 11  3  1  0
M  END
>  <id>  (345) 
64eaf9c1-d89c-4b78-ba59-8147626747ee

>  <Version>  (345) 
0

>  <Alias>  (345) 
1,5-PyMeNH2

>  <Type>  (345) 
amino_acid

>  <Smiles>  (345) 
O=C(c1ccc(CN[*:1])nc1)[*:2]

>  <ProtectedSmiles>  (345) 
O=C(NCc1ccc(C(=O)O)cn1)OCC1c2ccccc2-c2ccccc21

>  <CAS>  (345) 
476362-73-9

>  <User>  (345) 
marie.g

>  <StereoComment>  (345) 
as drawn

>  <Name>  (345) 
6-[({[(9H-fluoren-9-yl)methoxy]carbonyl}amino)methyl]pyridine-3-carboxylic acid

>  <Code>  (345) 
1,5-PyMeNH2

>  <AliasLowerCase>  (345) 
1,5-pymenh2

>  <LatestVersion>  (345) 
0.0

>  <createdAt>  (345) 
2026-01-14T11:33:42.551Z

>  <updatedAt>  (345) 
2026-01-14T11:33:42.551Z

>  <NumRotatableBonds>  (345) 
3

>  <is_N_methyl>  (345) 
False

>  <is_a_methyl>  (345) 
False

>  <is_alpha_aa>  (345) 
False

>  <is_beta_aa>  (345) 
False

>  <is_S100_aa>  (345) 
False

>  <Murcko_SMILES>  (345) 
c1ccncc1

$$$$

     RDKit          2D

 14 14  0  0  0  0  0  0  0  0999 V2000
    6.0000    0.0000    0.0000 O   0  0  0  0  0  0  0  0  0  0  0  0
    5.2500   -1.2990    0.0000 C   0  0  0  0  0  0  0  0  0  0  0  0
    3.7500   -1.2990    0.0000 C   0  0  0  0  0  0  0  0  0  0  0  0
    3.0000    0.0000    0.0000 C   0  0  0  0  0  0  0  0  0  0  0  0
    1.5000    0.0000    0.0000 C   0  0  0  0  0  0  0  0  0  0  0  0
    0.7500   -1.2990    0.0000 C   0  0  0  0  0  0  0  0  0  0  0  0
   -0.7500   -1.2990    0.0000 C   0  0  0  0  0  0  0  0  0  0  0  0
   -1.5000    0.0000    0.0000 C   0  0  0  0  0  0  0  0  0  0  0  0
   -0.7500    1.2990    0.0000 C   0  0  0  0  0  0  0  0  0  0  0  0
    0.7500    1.2990    0.0000 C   0  0  0  0  0  0  0  0  0  0  0  0
    1.5000    2.5981    0.0000 C   0  0  0  0  0  0  0  0  0  0  0  0
    0.7500    3.8971    0.0000 N   0  0  0  0  0  0  0  0  0  0  0  0
    1.5000    5.1962    0.0000 R   0  0  0  0  0  1  0  0  0  1  0  0
    6.0000   -2.5981    0.0000 R   0  0  0  0  0  1  0  0  0  2  0  0
  1  2  2  0
  2  3  1  0
  3  4  1  0
  4  5  1  0
  5  6  2  0
  6  7  1  0
  7  8  2  0
  8  9  1  0
  9 10  2  0
 10 11  1  0
 11 12  1  0
 12 13  1  0
  2 14  1  0
 10  5  1  0
M  END
>  <id>  (346) 
88498c06-4cb6-454d-9aa5-2071cc464af4

>  <Version>  (346) 
0

>  <Alias>  (346) 
2MPPA

>  <Type>  (346) 
amino_acid

>  <Smiles>  (346) 
O=C(CCc1ccccc1CN[*:1])[*:2]

>  <ProtectedSmiles>  (346) 
O=C(O)CCc1ccccc1CNC(=O)OCC1c2ccccc2-c2ccccc21

>  <CAS>  (346) 
2230807-62-0

>  <User>  (346) 
mischa.s

>  <StereoComment>  (346) 
as drawn

>  <Name>  (346) 
3-{2-[({[(9H-fluoren-9-yl)methoxy]carbonyl}amino)methyl]phenyl}propanoic acid

>  <Code>  (346) 
2MPPA

>  <AliasLowerCase>  (346) 
2mppa

>  <LatestVersion>  (346) 
0.0

>  <createdAt>  (346) 
2026-01-14T11:37:52.018Z

>  <updatedAt>  (346) 
2026-01-14T11:37:52.018Z

>  <NumRotatableBonds>  (346) 
5

>  <is_N_methyl>  (346) 
False

>  <is_a_methyl>  (346) 
False

>  <is_alpha_aa>  (346) 
False

>  <is_beta_aa>  (346) 
False

>  <is_S100_aa>  (346) 
False

>  <Murcko_SMILES>  (346) 
c1ccccc1

$$$$

     RDKit          2D

 15 15  0  0  0  0  0  0  0  0999 V2000
    4.5000    0.0000    0.0000 N   0  0  0  0  0  0  0  0  0  0  0  0
    3.0000    0.0000    0.0000 C   0  0  0  0  0  0  0  0  0  0  0  0
    1.5000    0.0000    0.0000 C   0  0  0  0  0  0  0  0  0  0  0  0
    0.7500   -1.2990    0.0000 C   0  0  0  0  0  0  0  0  0  0  0  0
   -0.7500   -1.2990    0.0000 C   0  0  0  0  0  0  0  0  0  0  0  0
   -1.5000    0.0000    0.0000 C   0  0  0  0  0  0  0  0  0  0  0  0
   -0.7500    1.2990    0.0000 C   0  0  0  0  0  0  0  0  0  0  0  0
    0.7500    1.2990    0.0000 C   0  0  0  0  0  0  0  0  0  0  0  0
    1.5000    2.5981    0.0000 C   0  0  0  0  0  0  0  0  0  0  0  0
    3.0000    2.5981    0.0000 C   0  0  0  0  0  0  0  0  0  0  0  0
    3.7500    1.2990    0.0000 N   0  0  0  0  0  0  0  0  0  0  0  0
    5.2500    1.2990    0.0000 R   0  0  0  0  0  1  0  0  0  1  0  0
    3.7500    3.8971    0.0000 C   0  0  0  0  0  0  0  0  0  0  0  0
    3.0000    5.1962    0.0000 O   0  0  0  0  0  0  0  0  0  0  0  0
    5.2500    3.8971    0.0000 R   0  0  0  0  0  1  0  0  0  2  0  0
  1  2  3  0
  2  3  1  0
  3  4  2  0
  4  5  1  0
  5  6  2  0
  6  7  1  0
  7  8  2  0
  8  9  1  0
 10  9  1  6
 10 11  1  0
 11 12  1  0
 10 13  1  0
 13 14  2  0
 13 15  1  0
  8  3  1  0
M  END
>  <id>  (347) 
644dc23b-1c75-44ae-9254-b5d97d256660

>  <Version>  (347) 
0

>  <Alias>  (347) 
2CN-D-Phe

>  <Type>  (347) 
amino_acid

>  <Smiles>  (347) 
N#Cc1ccccc1C[C@@H](N[*:1])C(=O)[*:2]

>  <ProtectedSmiles>  (347) 
N#Cc1ccccc1C[C@@H](NC(=O)OCC1c2ccccc2-c2ccccc21)C(=O)O

>  <CAS>  (347) 
401620-74-4

>  <User>  (347) 
angelica.l

>  <StereoComment>  (347) 
as drawn

>  <Name>  (347) 
Fmoc-2-Cyano-D-phenylalanine

>  <Code>  (347) 
2CN-D-Phe

>  <AliasLowerCase>  (347) 
2cn-d-phe

>  <LatestVersion>  (347) 
0.0

>  <createdAt>  (347) 
2026-01-14T11:36:09.575Z

>  <updatedAt>  (347) 
2026-01-14T11:36:09.575Z

>  <NumRotatableBonds>  (347) 
4

>  <is_N_methyl>  (347) 
False

>  <is_a_methyl>  (347) 
False

>  <is_alpha_aa>  (347) 
True

>  <is_beta_aa>  (347) 
False

>  <is_S100_aa>  (347) 
False

>  <Murcko_SMILES>  (347) 
c1ccccc1

$$$$

     RDKit          2D

 11 10  0  0  0  0  0  0  0  0999 V2000
    7.7942   -0.0000    0.0000 C   0  0  0  0  0  0  0  0  0  0  0  0
    6.4952    0.7500    0.0000 C   0  0  0  0  0  0  0  0  0  0  0  0
    6.4952    2.2500    0.0000 C   0  0  0  0  0  0  0  0  0  0  0  0
    5.1962   -0.0000    0.0000 C   0  0  0  0  0  0  0  0  0  0  0  0
    3.8971    0.7500    0.0000 C   0  0  0  0  0  0  0  0  0  0  0  0
    2.5981   -0.0000    0.0000 C   0  0  0  0  0  0  0  0  0  0  0  0
    1.2990    0.7500    0.0000 C   0  0  0  0  0  0  0  0  0  0  0  0
    1.2990    2.2500    0.0000 O   0  0  0  0  0  0  0  0  0  0  0  0
    0.0000    0.0000    0.0000 R   0  0  0  0  0  1  0  0  0  2  0  0
    3.8971    2.2500    0.0000 N   0  0  0  0  0  0  0  0  0  0  0  0
    5.1962    3.0000    0.0000 R   0  0  0  0  0  1  0  0  0  1  0  0
  1  2  1  0
  2  3  1  0
  2  4  1  0
  5  4  1  1
  5  6  1  0
  6  7  1  0
  7  8  2  0
  7  9  1  0
  5 10  1  0
 10 11  1  0
M  END
>  <id>  (348) 
e5c2e9ef-2063-423f-bc4a-c44a7e557d85

>  <Version>  (348) 
0

>  <Alias>  (348) 
B-hLeu

>  <Type>  (348) 
amino_acid

>  <Smiles>  (348) 
CC(C)C[C@@H](CC(=O)[*:2])N[*:1]

>  <ProtectedSmiles>  (348) 
CC(C)C[C@@H](CC(=O)O)NC(=O)OCC1c2ccccc2-c2ccccc21

>  <CAS>  (348) 
193887-44-4

>  <User>  (348) 
sevan.h

>  <StereoComment>  (348) 
as drawn

>  <Name>  (348) 
Fmoc-L-beta-homoleucine

>  <Code>  (348) 
B-hLeu

>  <AliasLowerCase>  (348) 
b-hleu

>  <LatestVersion>  (348) 
0.0

>  <createdAt>  (348) 
2026-01-14T12:15:38.333Z

>  <updatedAt>  (348) 
2026-01-14T12:15:38.333Z

>  <NumRotatableBonds>  (348) 
5

>  <is_N_methyl>  (348) 
False

>  <is_a_methyl>  (348) 
False

>  <is_alpha_aa>  (348) 
False

>  <is_beta_aa>  (348) 
True

>  <is_S100_aa>  (348) 
False

>  <Murcko_SMILES>  (348) 


$$$$

     RDKit          2D

  9  9  0  0  0  0  0  0  0  0999 V2000
    2.3660   -2.5981    0.0000 O   0  0  0  0  0  0  0  0  0  0  0  0
    3.1160   -1.2990    0.0000 C   0  0  0  0  0  0  0  0  0  0  0  0
    2.3660    0.0000    0.0000 C   0  0  0  0  0  0  0  0  0  0  0  0
    3.1160    1.2990    0.0000 N   0  0  0  0  0  0  0  0  0  0  0  0
    4.6160    1.2990    0.0000 R   0  0  0  0  0  1  0  0  0  1  0  0
    0.8660    0.0000    0.0000 C   0  0  0  0  0  0  0  0  0  0  0  0
   -0.4330    0.7500    0.0000 C   0  0  0  0  0  0  0  0  0  0  0  0
   -0.4330   -0.7500    0.0000 C   0  0  0  0  0  0  0  0  0  0  0  0
    4.6160   -1.2990    0.0000 R   0  0  0  0  0  1  0  0  0  2  0  0
  1  2  2  0
  2  3  1  0
  3  4  1  6
  4  5  1  0
  3  6  1  0
  6  7  1  0
  7  8  1  0
  2  9  1  0
  8  6  1  0
M  END
>  <id>  (349) 
5a6311bd-2218-443c-998d-c17f16b33c0e

>  <Version>  (349) 
0

>  <Alias>  (349) 
cPropGly

>  <Type>  (349) 
amino_acid

>  <Smiles>  (349) 
O=C([C@@H](N[*:1])C1CC1)[*:2]

>  <ProtectedSmiles>  (349) 
O=C(N[C@H](C(=O)O)C1CC1)OCC1c2ccccc2-c2ccccc21

>  <CAS>  (349) 
1212257-18-5

>  <User>  (349) 
sevan.h

>  <StereoComment>  (349) 
as drawn

>  <Name>  (349) 
Fmoc-L-cyclopropylglycine

>  <Code>  (349) 
cPropGly

>  <AliasLowerCase>  (349) 
cpropgly

>  <LatestVersion>  (349) 
0.0

>  <createdAt>  (349) 
2026-01-14T12:15:28.978Z

>  <updatedAt>  (349) 
2026-01-14T12:15:28.978Z

>  <NumRotatableBonds>  (349) 
3

>  <is_N_methyl>  (349) 
False

>  <is_a_methyl>  (349) 
False

>  <is_alpha_aa>  (349) 
True

>  <is_beta_aa>  (349) 
False

>  <is_S100_aa>  (349) 
False

>  <Murcko_SMILES>  (349) 
C1CC1

$$$$

     RDKit          2D

 17 18  0  0  0  0  0  0  0  0999 V2000
    5.8875   -6.5486    0.0000 O   0  0  0  0  0  0  0  0  0  0  0  0
    4.6740   -7.4303    0.0000 C   0  0  0  0  0  0  0  0  0  0  0  0
    3.3037   -6.8202    0.0000 C   0  0  0  0  0  0  0  0  0  0  0  0
    2.9918   -5.3529    0.0000 C   0  0  0  0  0  0  0  0  0  0  0  0
    1.5000   -5.1962    0.0000 C   0  0  0  0  0  0  0  0  0  0  0  0
    0.7500   -3.8971    0.0000 O   0  0  0  0  0  0  0  0  0  0  0  0
    1.5000   -2.5981    0.0000 C   0  0  0  0  0  0  0  0  0  0  0  0
    0.7500   -1.2990    0.0000 C   0  0  0  0  0  0  0  0  0  0  0  0
    1.5000    0.0000    0.0000 C   0  0  0  0  0  0  0  0  0  0  0  0
    0.7500    1.2990    0.0000 C   0  0  0  0  0  0  0  0  0  0  0  0
   -0.7500    1.2990    0.0000 C   0  0  0  0  0  0  0  0  0  0  0  0
   -1.5000    0.0000    0.0000 C   0  0  0  0  0  0  0  0  0  0  0  0
   -0.7500   -1.2990    0.0000 C   0  0  0  0  0  0  0  0  0  0  0  0
    0.8899   -6.5665    0.0000 C   0  0  0  0  0  0  0  0  0  0  0  0
    2.0046   -7.5702    0.0000 N   0  0  0  0  0  0  0  0  0  0  0  0
    1.8478   -9.0619    0.0000 R   0  0  0  0  0  1  0  0  0  1  0  0
    4.8308   -8.9221    0.0000 R   0  0  0  0  0  1  0  0  0  2  0  0
  1  2  2  0
  3  2  1  1
  3  4  1  0
  4  5  1  0
  5  6  1  6
  6  7  1  0
  7  8  1  0
  8  9  2  0
  9 10  1  0
 10 11  2  0
 11 12  1  0
 12 13  2  0
  5 14  1  0
 14 15  1  0
 15 16  1  0
  2 17  1  0
 15  3  1  0
 13  8  1  0
M  END
>  <id>  (350) 
93f7b1cb-02e2-403b-b9ef-b17c33ad53db

>  <Version>  (350) 
0

>  <Alias>  (350) 
Hyp(OBzl)

>  <Type>  (350) 
amino_acid

>  <Smiles>  (350) 
O=C([C@@H]1C[C@@H](OCc2ccccc2)CN1[*:1])[*:2]

>  <ProtectedSmiles>  (350) 
O=C(O)[C@@H]1C[C@@H](OCc2ccccc2)CN1C(=O)OCC1c2ccccc2-c2ccccc21

>  <CAS>  (350) 
174800-02-3

>  <User>  (350) 
sevan.h

>  <StereoComment>  (350) 
as drawn

>  <Name>  (350) 
Fmoc-Hyp(OBzl)-OH

>  <Code>  (350) 
Hyp(OBzl)

>  <AliasLowerCase>  (350) 
hyp(obzl)

>  <LatestVersion>  (350) 
0.0

>  <createdAt>  (350) 
2026-01-14T12:15:41.932Z

>  <updatedAt>  (350) 
2026-01-14T12:15:41.932Z

>  <NumRotatableBonds>  (350) 
4

>  <is_N_methyl>  (350) 
False

>  <is_a_methyl>  (350) 
False

>  <is_alpha_aa>  (350) 
True

>  <is_beta_aa>  (350) 
False

>  <is_S100_aa>  (350) 
False

>  <Murcko_SMILES>  (350) 
c1ccc(CO[C@@H]2CCNC2)cc1

$$$$

     RDKit          2D

 14 15  0  0  0  0  0  0  0  0999 V2000
    3.5260    1.2990    0.0000 O   0  0  0  0  0  0  0  0  0  0  0  0
    2.7760    0.0000    0.0000 C   0  0  0  0  0  0  0  0  0  0  0  0
    1.2760    0.0000    0.0000 C   0  0  0  0  0  0  0  0  0  0  0  0
    0.3943    1.2135    0.0000 C   0  0  0  0  0  0  0  0  0  0  0  0
   -1.0323    0.7500    0.0000 S   0  0  0  0  0  0  0  0  0  0  0  0
   -1.0323   -0.7500    0.0000 C   0  0  0  0  0  0  0  0  0  0  0  0
   -2.2458   -1.6317    0.0000 C   0  0  0  0  0  0  0  0  0  0  0  0
   -2.2458   -3.1317    0.0000 C   0  0  0  0  0  0  0  0  0  0  0  0
   -3.6724   -3.5952    0.0000 C   0  0  0  0  0  0  0  0  0  0  0  0
   -4.5541   -2.3817    0.0000 N   0  0  0  0  0  0  0  0  0  0  0  0
   -6.0541   -2.3817    0.0000 R   0  0  0  0  0  1  0  0  0  1  0  0
   -3.6724   -1.1682    0.0000 C   0  0  0  0  0  0  0  0  0  0  0  0
    0.3943   -1.2135    0.0000 N   0  0  0  0  0  0  0  0  0  0  0  0
    3.5260   -1.2990    0.0000 R   0  0  0  0  0  1  0  0  0  2  0  0
  1  2  2  0
  2  3  1  0
  3  4  2  0
  4  5  1  0
  5  6  1  0
  6  7  1  0
  7  8  1  0
  8  9  1  0
  9 10  1  0
 10 11  1  0
 10 12  1  0
  6 13  2  0
  2 14  1  0
 13  3  1  0
 12  7  1  0
M  END
>  <id>  (351) 
97f939ba-ef22-458e-be32-786784924c37

>  <Version>  (351) 
0

>  <Alias>  (351) 
3Pyrr_4Thia

>  <Type>  (351) 
amino_acid

>  <Smiles>  (351) 
O=C(c1csc(C2CCN([*:1])C2)n1)[*:2]

>  <ProtectedSmiles>  (351) 
O=C(O)c1csc(C2CCN(C(=O)OCC3c4ccccc4-c4ccccc43)C2)n1

>  <CAS>  (351) 
2247103-79-1

>  <User>  (351) 
sevan.h

>  <StereoComment>  (351) 
as drawn

>  <Name>  (351) 
2-(1-{[(9H-fluoren-9-yl)methoxy]carbonyl}pyrrolidin-3-yl)-1,3-thiazole-4-carboxylic acid

>  <Code>  (351) 
3Pyrr_4Thia

>  <AliasLowerCase>  (351) 
3pyrr_4thia

>  <LatestVersion>  (351) 
0.0

>  <createdAt>  (351) 
2026-01-14T11:32:50.865Z

>  <updatedAt>  (351) 
2026-01-14T11:32:50.865Z

>  <NumRotatableBonds>  (351) 
2

>  <is_N_methyl>  (351) 
False

>  <is_a_methyl>  (351) 
False

>  <is_alpha_aa>  (351) 
False

>  <is_beta_aa>  (351) 
False

>  <is_S100_aa>  (351) 
False

>  <Murcko_SMILES>  (351) 
c1csc(C2CCNC2)n1

$$$$

     RDKit          2D

 14 14  0  0  0  0  0  0  0  0999 V2000
    6.0000    0.0000    0.0000 O   0  0  0  0  0  0  0  0  0  0  0  0
    5.2500   -1.2990    0.0000 C   0  0  0  0  0  0  0  0  0  0  0  0
    3.7500   -1.2990    0.0000 C   0  0  0  0  0  0  0  0  0  0  0  0
    3.0000    0.0000    0.0000 C   0  0  0  0  0  0  0  0  0  0  0  0
    3.7500    1.2990    0.0000 N   0  0  0  0  0  0  0  0  0  0  0  0
    5.2500    1.2990    0.0000 R   0  0  0  0  0  1  0  0  0  1  0  0
    1.5000    0.0000    0.0000 C   0  0  0  0  0  0  0  0  0  0  0  0
    0.7500   -1.2990    0.0000 C   0  0  0  0  0  0  0  0  0  0  0  0
   -0.7500   -1.2990    0.0000 C   0  0  0  0  0  0  0  0  0  0  0  0
   -1.5000    0.0000    0.0000 C   0  0  0  0  0  0  0  0  0  0  0  0
   -3.0000    0.0000    0.0000 F   0  0  0  0  0  0  0  0  0  0  0  0
   -0.7500    1.2990    0.0000 C   0  0  0  0  0  0  0  0  0  0  0  0
    0.7500    1.2990    0.0000 C   0  0  0  0  0  0  0  0  0  0  0  0
    6.0000   -2.5981    0.0000 R   0  0  0  0  0  1  0  0  0  2  0  0
  1  2  2  0
  2  3  1  0
  4  3  1  1
  4  5  1  0
  5  6  1  0
  4  7  1  0
  7  8  2  0
  8  9  1  0
  9 10  2  0
 10 11  1  0
 10 12  1  0
 12 13  2  0
  2 14  1  0
 13  7  1  0
M  END
>  <id>  (352) 
aa0e19c6-2436-4f03-a3bf-09ffd8256263

>  <Version>  (352) 
0

>  <Alias>  (352) 
3S-(4FPh)PA

>  <Type>  (352) 
amino_acid

>  <Smiles>  (352) 
O=C(C[C@H](N[*:1])c1ccc(F)cc1)[*:2]

>  <ProtectedSmiles>  (352) 
O=C(O)C[C@H](NC(=O)OCC1c2ccccc2-c2ccccc21)c1ccc(F)cc1

>  <CAS>  (352) 
479064-89-6

>  <User>  (352) 
mischa.s

>  <StereoComment>  (352) 
as drawn

>  <Name>  (352) 
(S)-3-((((9H-Fluoren-9-yl)methoxy)carbonyl)amino)-3-(4-fluorophenyl)propanoic acid

>  <Code>  (352) 
3S-(4FPh)PA

>  <AliasLowerCase>  (352) 
3s-(4fph)pa

>  <LatestVersion>  (352) 
0.0

>  <createdAt>  (352) 
2026-01-14T11:34:57.157Z

>  <updatedAt>  (352) 
2026-01-14T11:34:57.157Z

>  <NumRotatableBonds>  (352) 
4

>  <is_N_methyl>  (352) 
False

>  <is_a_methyl>  (352) 
False

>  <is_alpha_aa>  (352) 
False

>  <is_beta_aa>  (352) 
True

>  <is_S100_aa>  (352) 
False

>  <Murcko_SMILES>  (352) 
c1ccccc1

$$$$

     RDKit          2D

 10 10  0  0  0  0  0  0  0  0999 V2000
    3.7500    1.2990    0.0000 O   0  0  0  0  0  0  0  0  0  0  0  0
    3.0000    0.0000    0.0000 C   0  0  0  0  0  0  0  0  0  0  0  0
    1.5000    0.0000    0.0000 C   0  0  0  0  0  0  0  0  0  0  0  0
    0.7500   -1.2990    0.0000 C   0  0  0  0  0  0  0  0  0  0  0  0
   -0.7500   -1.2990    0.0000 O   0  0  0  0  0  0  0  0  0  0  0  0
   -1.5000    0.0000    0.0000 C   0  0  0  0  0  0  0  0  0  0  0  0
   -0.7500    1.2990    0.0000 C   0  0  0  0  0  0  0  0  0  0  0  0
    0.7500    1.2990    0.0000 N   0  0  0  0  0  0  0  0  0  0  0  0
    1.5000    2.5981    0.0000 R   0  0  0  0  0  1  0  0  0  1  0  0
    3.7500   -1.2990    0.0000 R   0  0  0  0  0  1  0  0  0  2  0  0
  1  2  2  0
  2  3  1  0
  3  4  1  0
  4  5  1  0
  5  6  1  0
  6  7  1  0
  7  8  1  0
  8  9  1  0
  2 10  1  0
  8  3  1  0
M  END
>  <id>  (353) 
606cb084-9ef1-475b-a361-be128c09e40b

>  <Version>  (353) 
0

>  <Alias>  (353) 
3Morph

>  <Type>  (353) 
amino_acid

>  <Smiles>  (353) 
O=C(C1COCCN1[*:1])[*:2]

>  <ProtectedSmiles>  (353) 
O=C(O)C1COCCN1C(=O)OCC1c2ccccc2-c2ccccc21

>  <CAS>  (353) 
204320-51-4

>  <User>  (353) 
sevan.h

>  <StereoComment>  (353) 
as drawn

>  <Name>  (353) 
(R/S)-Fmoc-3-carboxymorpholine

>  <Code>  (353) 
3Morph

>  <AliasLowerCase>  (353) 
3morph

>  <LatestVersion>  (353) 
0.0

>  <createdAt>  (353) 
2026-01-14T12:15:12.704Z

>  <updatedAt>  (353) 
2026-01-14T12:15:12.704Z

>  <NumRotatableBonds>  (353) 
1

>  <is_N_methyl>  (353) 
False

>  <is_a_methyl>  (353) 
False

>  <is_alpha_aa>  (353) 
True

>  <is_beta_aa>  (353) 
False

>  <is_S100_aa>  (353) 
False

>  <Murcko_SMILES>  (353) 
C1COCCN1

$$$$

     RDKit          2D

 11 10  0  0  0  0  0  0  0  0999 V2000
    6.4952    2.2500    0.0000 O   0  0  0  0  0  0  0  0  0  0  0  0
    6.4952    0.7500    0.0000 C   0  0  0  0  0  0  0  0  0  0  0  0
    7.7942   -0.0000    0.0000 O   0  0  0  0  0  0  0  0  0  0  0  0
    5.1962   -0.0000    0.0000 C   0  0  0  0  0  0  0  0  0  0  0  0
    3.8971    0.7500    0.0000 C   0  0  0  0  0  0  0  0  0  0  0  0
    2.5981   -0.0000    0.0000 C   0  0  0  0  0  0  0  0  0  0  0  0
    1.2990    0.7500    0.0000 N   0  0  0  0  0  0  0  0  0  0  0  0
    0.0000    0.0000    0.0000 R   0  0  0  0  0  1  0  0  0  1  0  0
    2.5981   -1.5000    0.0000 C   0  0  0  0  0  0  0  0  0  0  0  0
    1.2990   -2.2500    0.0000 O   0  0  0  0  0  0  0  0  0  0  0  0
    3.8971   -2.2500    0.0000 R   0  0  0  0  0  1  0  0  0  2  0  0
  1  2  2  0
  2  3  1  0
  2  4  1  0
  4  5  1  0
  6  5  1  1
  6  7  1  0
  7  8  1  0
  6  9  1  0
  9 10  2  0
  9 11  1  0
M  END
>  <id>  (354) 
e13774e6-af15-47c8-a0cb-bfe54f68cfee

>  <Version>  (354) 
0

>  <Alias>  (354) 
Glu(OAll)

>  <Type>  (354) 
amino_acid

>  <Smiles>  (354) 
O=C(O)CC[C@H](N[*:1])C(=O)[*:2]

>  <ProtectedSmiles>  (354) 
C=CCOC(=O)CC[C@H](NC(=O)OCC1c2ccccc2-c2ccccc21)C(=O)O

>  <CAS>  (354) 
133464-46-7

>  <User>  (354) 
emile.b

>  <StereoComment>  (354) 
as drawn

>  <Name>  (354) 
Fmoc-Glu(OAll)-OH

>  <Code>  (354) 
Glu(OAll)

>  <AliasLowerCase>  (354) 
glu(oall)

>  <LatestVersion>  (354) 
0.0

>  <createdAt>  (354) 
2026-01-14T11:34:46.745Z

>  <updatedAt>  (354) 
2026-01-14T11:34:46.745Z

>  <NumRotatableBonds>  (354) 
5

>  <is_N_methyl>  (354) 
False

>  <is_a_methyl>  (354) 
False

>  <is_alpha_aa>  (354) 
True

>  <is_beta_aa>  (354) 
False

>  <is_S100_aa>  (354) 
False

>  <Murcko_SMILES>  (354) 


$$$$

     RDKit          2D

  9  8  0  0  0  0  0  0  0  0999 V2000
    5.1962   -0.0000    0.0000 C   0  0  0  0  0  0  0  0  0  0  0  0
    3.8971    0.7500    0.0000 C   0  0  0  0  0  0  0  0  0  0  0  0
    3.8971    2.2500    0.0000 C   0  0  0  0  0  0  0  0  0  0  0  0
    2.5981   -0.0000    0.0000 C   0  0  0  0  0  0  0  0  0  0  0  0
    1.2990    0.7500    0.0000 N   0  0  0  0  0  0  0  0  0  0  0  0
    0.0000    0.0000    0.0000 R   0  0  0  0  0  1  0  0  0  1  0  0
    2.5981   -1.5000    0.0000 C   0  0  0  0  0  0  0  0  0  0  0  0
    1.2990   -2.2500    0.0000 O   0  0  0  0  0  0  0  0  0  0  0  0
    3.8971   -2.2500    0.0000 R   0  0  0  0  0  1  0  0  0  2  0  0
  1  2  1  0
  2  3  1  0
  2  4  1  0
  4  5  1  1
  5  6  1  0
  4  7  1  0
  7  8  2  0
  7  9  1  0
M  END
>  <id>  (355) 
9444a76a-ef7d-4c65-9bdf-d4ed39c4885f

>  <Version>  (355) 
0

>  <Alias>  (355) 
Val

>  <Type>  (355) 
amino_acid

>  <Smiles>  (355) 
CC(C)[C@H](N[*:1])C(=O)[*:2]

>  <ProtectedSmiles>  (355) 
CC(C)[C@H](NC(=O)OCC1c2ccccc2-c2ccccc21)C(=O)O

>  <CAS>  (355) 
68858-20-8

>  <User>  (355) 
sevan.h

>  <StereoComment>  (355) 
as drawn

>  <Name>  (355) 
Fmoc-Val-OH

>  <Code>  (355) 
Val

>  <AliasLowerCase>  (355) 
val

>  <LatestVersion>  (355) 
0.0

>  <createdAt>  (355) 
2026-01-14T12:17:20.374Z

>  <updatedAt>  (355) 
2026-01-14T12:17:20.374Z

>  <NumRotatableBonds>  (355) 
3

>  <is_N_methyl>  (355) 
False

>  <is_a_methyl>  (355) 
False

>  <is_alpha_aa>  (355) 
True

>  <is_beta_aa>  (355) 
False

>  <is_S100_aa>  (355) 
False

>  <Murcko_SMILES>  (355) 


$$$$

     RDKit          2D

 14 14  0  0  0  0  0  0  0  0999 V2000
    6.0000    0.0000    0.0000 O   0  0  0  0  0  0  0  0  0  0  0  0
    5.2500   -1.2990    0.0000 C   0  0  0  0  0  0  0  0  0  0  0  0
    3.7500   -1.2990    0.0000 C   0  0  0  0  0  0  0  0  0  0  0  0
    3.0000    0.0000    0.0000 C   0  0  0  0  0  0  0  0  0  0  0  0
    3.7500    1.2990    0.0000 N   0  0  0  0  0  0  0  0  0  0  0  0
    5.2500    1.2990    0.0000 R   0  0  0  0  0  1  0  0  0  1  0  0
    1.5000    0.0000    0.0000 C   0  0  0  0  0  0  0  0  0  0  0  0
    0.7500   -1.2990    0.0000 C   0  0  0  0  0  0  0  0  0  0  0  0
   -0.7500   -1.2990    0.0000 C   0  0  0  0  0  0  0  0  0  0  0  0
   -1.5000    0.0000    0.0000 C   0  0  0  0  0  0  0  0  0  0  0  0
   -3.0000    0.0000    0.0000 F   0  0  0  0  0  0  0  0  0  0  0  0
   -0.7500    1.2990    0.0000 C   0  0  0  0  0  0  0  0  0  0  0  0
    0.7500    1.2990    0.0000 C   0  0  0  0  0  0  0  0  0  0  0  0
    6.0000   -2.5981    0.0000 R   0  0  0  0  0  1  0  0  0  2  0  0
  1  2  2  0
  2  3  1  0
  4  3  1  6
  4  5  1  0
  5  6  1  0
  4  7  1  0
  7  8  2  0
  8  9  1  0
  9 10  2  0
 10 11  1  0
 10 12  1  0
 12 13  2  0
  2 14  1  0
 13  7  1  0
M  END
>  <id>  (356) 
9f1f7901-3307-4a96-bf0c-ac4b75e419dd

>  <Version>  (356) 
0

>  <Alias>  (356) 
3R-(4FPh)PA

>  <Type>  (356) 
amino_acid

>  <Smiles>  (356) 
O=C(C[C@@H](N[*:1])c1ccc(F)cc1)[*:2]

>  <ProtectedSmiles>  (356) 
O=C(O)C[C@@H](NC(=O)OCC1c2ccccc2-c2ccccc21)c1ccc(F)cc1

>  <CAS>  (356) 
479064-95-4

>  <User>  (356) 
mischa.s

>  <StereoComment>  (356) 
as drawn

>  <Name>  (356) 
(R)-3-((((9H-Fluoren-9-yl)methoxy)carbonyl)amino)-3-(4-fluorophenyl)propanoic acid

>  <Code>  (356) 
3R-(4FPh)PA

>  <AliasLowerCase>  (356) 
3r-(4fph)pa

>  <LatestVersion>  (356) 
0.0

>  <createdAt>  (356) 
2026-01-14T11:34:57.594Z

>  <updatedAt>  (356) 
2026-01-14T11:34:57.594Z

>  <NumRotatableBonds>  (356) 
4

>  <is_N_methyl>  (356) 
False

>  <is_a_methyl>  (356) 
False

>  <is_alpha_aa>  (356) 
False

>  <is_beta_aa>  (356) 
True

>  <is_S100_aa>  (356) 
False

>  <Murcko_SMILES>  (356) 
c1ccccc1

$$$$

     RDKit          2D

 15 15  0  0  0  0  0  0  0  0999 V2000
    4.5000    0.0000    0.0000 N   0  0  0  0  0  0  0  0  0  0  0  0
    3.0000    0.0000    0.0000 C   0  0  0  0  0  0  0  0  0  0  0  0
    1.5000    0.0000    0.0000 C   0  0  0  0  0  0  0  0  0  0  0  0
    0.7500   -1.2990    0.0000 C   0  0  0  0  0  0  0  0  0  0  0  0
   -0.7500   -1.2990    0.0000 C   0  0  0  0  0  0  0  0  0  0  0  0
   -1.5000    0.0000    0.0000 C   0  0  0  0  0  0  0  0  0  0  0  0
   -3.0000    0.0000    0.0000 C   0  0  0  0  0  0  0  0  0  0  0  0
   -3.7500    1.2990    0.0000 C   0  0  0  0  0  0  0  0  0  0  0  0
   -3.0000    2.5981    0.0000 N   0  0  0  0  0  0  0  0  0  0  0  0
   -3.7500    3.8971    0.0000 R   0  0  0  0  0  1  0  0  0  1  0  0
   -5.2500    1.2990    0.0000 C   0  0  0  0  0  0  0  0  0  0  0  0
   -6.0000   -0.0000    0.0000 O   0  0  0  0  0  0  0  0  0  0  0  0
   -6.0000    2.5981    0.0000 R   0  0  0  0  0  1  0  0  0  2  0  0
   -0.7500    1.2990    0.0000 C   0  0  0  0  0  0  0  0  0  0  0  0
    0.7500    1.2990    0.0000 C   0  0  0  0  0  0  0  0  0  0  0  0
  1  2  3  0
  2  3  1  0
  3  4  2  0
  4  5  1  0
  5  6  2  0
  6  7  1  0
  8  7  1  6
  8  9  1  0
  9 10  1  0
  8 11  1  0
 11 12  2  0
 11 13  1  0
  6 14  1  0
 14 15  2  0
 15  3  1  0
M  END
>  <id>  (357) 
edbab0ed-db31-4589-8b75-a04115f02d2b

>  <Version>  (357) 
0

>  <Alias>  (357) 
D-4CNPhe

>  <Type>  (357) 
amino_acid

>  <Smiles>  (357) 
N#Cc1ccc(C[C@@H](N[*:1])C(=O)[*:2])cc1

>  <ProtectedSmiles>  (357) 
N#Cc1ccc(C[C@@H](NC(=O)OCC2c3ccccc3-c3ccccc32)C(=O)O)cc1

>  <CAS>  (357) 
205526-34-7

>  <User>  (357) 
sevan.h

>  <StereoComment>  (357) 
as drawn

>  <Name>  (357) 
Fmoc-d-4-cyanophenylalanine

>  <Code>  (357) 
D-4CNPhe

>  <AliasLowerCase>  (357) 
d-4cnphe

>  <LatestVersion>  (357) 
0.0

>  <createdAt>  (357) 
2026-01-14T12:16:20.483Z

>  <updatedAt>  (357) 
2026-01-14T12:16:20.483Z

>  <NumRotatableBonds>  (357) 
4

>  <is_N_methyl>  (357) 
False

>  <is_a_methyl>  (357) 
False

>  <is_alpha_aa>  (357) 
True

>  <is_beta_aa>  (357) 
False

>  <is_S100_aa>  (357) 
False

>  <Murcko_SMILES>  (357) 
c1ccccc1

$$$$

     RDKit          2D

 15 15  0  0  0  0  0  0  0  0999 V2000
    5.2500   -3.8971    0.0000 O   0  0  0  0  0  0  0  0  0  0  0  0
    6.0000   -2.5981    0.0000 C   0  0  0  0  0  0  0  0  0  0  0  0
    5.2500   -1.2990    0.0000 C   0  0  0  0  0  0  0  0  0  0  0  0
    3.7500   -1.2990    0.0000 C   0  0  0  0  0  0  0  0  0  0  0  0
    3.0000    0.0000    0.0000 C   0  0  0  0  0  0  0  0  0  0  0  0
    1.5000    0.0000    0.0000 C   0  0  0  0  0  0  0  0  0  0  0  0
    0.7500   -1.2990    0.0000 C   0  0  0  0  0  0  0  0  0  0  0  0
   -0.7500   -1.2990    0.0000 C   0  0  0  0  0  0  0  0  0  0  0  0
   -1.5000    0.0000    0.0000 C   0  0  0  0  0  0  0  0  0  0  0  0
   -3.0000    0.0000    0.0000 O   0  0  0  0  0  0  0  0  0  0  0  0
   -0.7500    1.2990    0.0000 C   0  0  0  0  0  0  0  0  0  0  0  0
    0.7500    1.2990    0.0000 C   0  0  0  0  0  0  0  0  0  0  0  0
    3.0000   -2.5981    0.0000 N   0  0  0  0  0  0  0  0  0  0  0  0
    3.7500   -3.8971    0.0000 R   0  0  0  0  0  1  0  0  0  1  0  0
    7.5000   -2.5981    0.0000 R   0  0  0  0  0  1  0  0  0  2  0  0
  1  2  2  0
  2  3  1  0
  4  3  1  6
  4  5  1  0
  5  6  1  0
  6  7  2  0
  7  8  1  0
  8  9  2  0
  9 10  1  0
  9 11  1  0
 11 12  2  0
  4 13  1  0
 13 14  1  0
  2 15  1  0
 12  6  1  0
M  END
>  <id>  (358) 
eb66a3be-8927-4bd6-aabc-9bd4b2fc327b

>  <Version>  (358) 
0

>  <Alias>  (358) 
D-B-HoTyr(tBu)

>  <Type>  (358) 
amino_acid

>  <Smiles>  (358) 
O=C(C[C@@H](Cc1ccc(O)cc1)N[*:1])[*:2]

>  <ProtectedSmiles>  (358) 
O=C(O)C[C@@H](Cc1ccc(O)cc1)NC(=O)OCC1c2ccccc2-c2ccccc21

>  <CAS>  (358) 
1233495-02-7

>  <User>  (358) 
alice.granger@orbismedicines.com

>  <StereoComment>  (358) 
as drawn

>  <Name>  (358) 
(R)-3-((((9H-Fluoren-9-yl)methoxy)carbonyl)amino)-4-(4-(tert-butoxy)phenyl)butanoic acid

>  <Code>  (358) 
D-B-HoTyr(tBu)

>  <AliasLowerCase>  (358) 
d-b-hotyr(tbu)

>  <LatestVersion>  (358) 
0.0

>  <createdAt>  (358) 
2026-03-11T10:37:04.546Z

>  <updatedAt>  (358) 
2026-03-11T10:37:04.546Z

>  <NumRotatableBonds>  (358) 
5

>  <is_N_methyl>  (358) 
False

>  <is_a_methyl>  (358) 
False

>  <is_alpha_aa>  (358) 
False

>  <is_beta_aa>  (358) 
True

>  <is_S100_aa>  (358) 
False

>  <Murcko_SMILES>  (358) 
c1ccccc1

$$$$

     RDKit          2D

 11 10  0  0  0  0  0  0  0  0999 V2000
    9.0933    0.7500    0.0000 N   0  0  0  0  0  0  0  0  0  0  0  0
    7.7942   -0.0000    0.0000 C   0  0  0  0  0  0  0  0  0  0  0  0
    6.4952    0.7500    0.0000 C   0  0  0  0  0  0  0  0  0  0  0  0
    5.1962   -0.0000    0.0000 C   0  0  0  0  0  0  0  0  0  0  0  0
    3.8971    0.7500    0.0000 C   0  0  0  0  0  0  0  0  0  0  0  0
    2.5981   -0.0000    0.0000 C   0  0  0  0  0  0  0  0  0  0  0  0
    1.2990    0.7500    0.0000 N   0  0  0  0  0  0  0  0  0  0  0  0
    0.0000    0.0000    0.0000 R   0  0  0  0  0  1  0  0  0  1  0  0
    2.5981   -1.5000    0.0000 C   0  0  0  0  0  0  0  0  0  0  0  0
    1.2990   -2.2500    0.0000 O   0  0  0  0  0  0  0  0  0  0  0  0
    3.8971   -2.2500    0.0000 R   0  0  0  0  0  1  0  0  0  2  0  0
  1  2  1  0
  2  3  1  0
  3  4  1  0
  4  5  1  0
  6  5  1  6
  6  7  1  0
  7  8  1  0
  6  9  1  0
  9 10  2  0
  9 11  1  0
M  END
>  <id>  (359) 
cd540a0f-727c-4c92-a9de-edb7b4896ba3

>  <Version>  (359) 
0

>  <Alias>  (359) 
D-Lys

>  <Type>  (359) 
amino_acid

>  <Smiles>  (359) 
NCCCC[C@@H](N[*:1])C(=O)[*:2]

>  <ProtectedSmiles>  (359) 
CC(C)(C)OC(=O)NCCCC[C@@H](NC(=O)OCC1c2ccccc2-c2ccccc21)C(=O)O

>  <CAS>  (359) 
92122-45-7

>  <User>  (359) 
emile.b

>  <StereoComment>  (359) 
as drawn

>  <Name>  (359) 
Fmoc-D-Lys(Boc)-OH

>  <Code>  (359) 
D-Lys

>  <AliasLowerCase>  (359) 
d-lys

>  <LatestVersion>  (359) 
0.0

>  <createdAt>  (359) 
2026-01-14T11:35:41.827Z

>  <updatedAt>  (359) 
2026-01-14T11:35:41.827Z

>  <NumRotatableBonds>  (359) 
6

>  <is_N_methyl>  (359) 
False

>  <is_a_methyl>  (359) 
False

>  <is_alpha_aa>  (359) 
True

>  <is_beta_aa>  (359) 
False

>  <is_S100_aa>  (359) 
False

>  <Murcko_SMILES>  (359) 


$$$$

     RDKit          2D

 12 12  0  0  0  0  0  0  0  0999 V2000
    3.7500    1.2990    0.0000 O   0  0  0  0  0  0  0  0  0  0  0  0
    3.0000    0.0000    0.0000 C   0  0  0  0  0  0  0  0  0  0  0  0
    1.5000    0.0000    0.0000 C   0  0  0  0  0  0  0  0  0  0  0  0
    0.7500   -1.2990    0.0000 C   0  0  0  0  0  0  0  0  0  0  0  0
   -0.7500   -1.2990    0.0000 C   0  0  0  0  0  0  0  0  0  0  0  0
   -0.4895   -2.7762    0.0000 F   0  0  0  0  0  0  0  0  0  0  0  0
   -2.1595   -1.8121    0.0000 F   0  0  0  0  0  0  0  0  0  0  0  0
   -1.5000    0.0000    0.0000 C   0  0  0  0  0  0  0  0  0  0  0  0
   -0.7500    1.2990    0.0000 C   0  0  0  0  0  0  0  0  0  0  0  0
    0.7500    1.2990    0.0000 N   0  0  0  0  0  0  0  0  0  0  0  0
    1.5000    2.5981    0.0000 R   0  0  0  0  0  1  0  0  0  1  0  0
    3.7500   -1.2990    0.0000 R   0  0  0  0  0  1  0  0  0  2  0  0
  1  2  2  0
  2  3  1  0
  3  4  1  0
  4  5  1  0
  5  6  1  0
  5  7  1  0
  5  8  1  0
  8  9  1  0
  9 10  1  0
 10 11  1  0
  2 12  1  0
 10  3  1  0
M  END
>  <id>  (360) 
4b57166c-ae33-4399-be52-13eb8bc740b8

>  <Version>  (360) 
0

>  <Alias>  (360) 
rac4,4-diFPip

>  <Type>  (360) 
amino_acid

>  <Smiles>  (360) 
O=C(C1CC(F)(F)CCN1[*:1])[*:2]

>  <ProtectedSmiles>  (360) 
O=C(O)C1CC(F)(F)CCN1C(=O)OCC1c2ccccc2-c2ccccc21

>  <CAS>  (360) 
1822486-89-4

>  <User>  (360) 
angelica.l

>  <StereoComment>  (360) 
as drawn

>  <Name>  (360) 
1-{[(9H-fluoren-9-yl)methoxy]carbonyl}-4,4-difluoropiperidine-2-carboxylic acid

>  <Code>  (360) 
rac4,4-diFPip

>  <AliasLowerCase>  (360) 
rac4,4-difpip

>  <LatestVersion>  (360) 
0.0

>  <createdAt>  (360) 
2026-01-14T11:35:27.792Z

>  <updatedAt>  (360) 
2026-01-14T11:35:27.792Z

>  <NumRotatableBonds>  (360) 
1

>  <is_N_methyl>  (360) 
False

>  <is_a_methyl>  (360) 
False

>  <is_alpha_aa>  (360) 
True

>  <is_beta_aa>  (360) 
False

>  <is_S100_aa>  (360) 
False

>  <Murcko_SMILES>  (360) 
C1CCNCC1

$$$$

     RDKit          2D

 11 10  0  0  0  0  0  0  0  0999 V2000
    6.4952    2.2500    0.0000 O   0  0  0  0  0  0  0  0  0  0  0  0
    6.4952    0.7500    0.0000 C   0  0  0  0  0  0  0  0  0  0  0  0
    7.7942   -0.0000    0.0000 O   0  0  0  0  0  0  0  0  0  0  0  0
    5.1962   -0.0000    0.0000 C   0  0  0  0  0  0  0  0  0  0  0  0
    3.8971    0.7500    0.0000 C   0  0  0  0  0  0  0  0  0  0  0  0
    2.5981   -0.0000    0.0000 C   0  0  0  0  0  0  0  0  0  0  0  0
    1.2990    0.7500    0.0000 N   0  0  0  0  0  0  0  0  0  0  0  0
    0.0000    0.0000    0.0000 R   0  0  0  0  0  1  0  0  0  1  0  0
    2.5981   -1.5000    0.0000 C   0  0  0  0  0  0  0  0  0  0  0  0
    1.2990   -2.2500    0.0000 O   0  0  0  0  0  0  0  0  0  0  0  0
    3.8971   -2.2500    0.0000 R   0  0  0  0  0  1  0  0  0  2  0  0
  1  2  2  0
  2  3  1  0
  2  4  1  0
  4  5  1  0
  6  5  1  1
  6  7  1  0
  7  8  1  0
  6  9  1  0
  9 10  2  0
  9 11  1  0
M  END
>  <id>  (361) 
3d900d5b-e583-48ce-a3ed-ad75ea7ae220

>  <Version>  (361) 
0

>  <Alias>  (361) 
Glu

>  <Type>  (361) 
amino_acid

>  <Smiles>  (361) 
O=C(O)CC[C@H](N[*:1])C(=O)[*:2]

>  <ProtectedSmiles>  (361) 
CC(C)(C)OC(=O)CC[C@H](NC(=O)OCC1c2ccccc2-c2ccccc21)C(=O)O

>  <CAS>  (361) 
71989-18-9

>  <User>  (361) 
sevan.h

>  <StereoComment>  (361) 
as drawn

>  <Name>  (361) 
Fmoc-Glu(OtBu)-OH

>  <Code>  (361) 
Glu

>  <AliasLowerCase>  (361) 
glu

>  <LatestVersion>  (361) 
0.0

>  <createdAt>  (361) 
2026-01-14T12:17:32.987Z

>  <updatedAt>  (361) 
2026-01-14T12:17:32.987Z

>  <NumRotatableBonds>  (361) 
5

>  <is_N_methyl>  (361) 
False

>  <is_a_methyl>  (361) 
False

>  <is_alpha_aa>  (361) 
True

>  <is_beta_aa>  (361) 
False

>  <is_S100_aa>  (361) 
False

>  <Murcko_SMILES>  (361) 


$$$$

     RDKit          2D

 15 15  0  0  0  0  0  0  0  0999 V2000
    6.0000    0.0000    0.0000 O   0  0  0  0  0  0  0  0  0  0  0  0
    5.2500   -1.2990    0.0000 C   0  0  0  0  0  0  0  0  0  0  0  0
    3.7500   -1.2990    0.0000 C   0  0  0  0  0  0  0  0  0  0  0  0
    3.0000    0.0000    0.0000 C   0  0  0  0  0  0  0  0  0  0  0  0
    1.5000    0.0000    0.0000 C   0  0  0  0  0  0  0  0  0  0  0  0
    0.7500   -1.2990    0.0000 C   0  0  0  0  0  0  0  0  0  0  0  0
   -0.7500   -1.2990    0.0000 C   0  0  0  0  0  0  0  0  0  0  0  0
   -1.5000    0.0000    0.0000 C   0  0  0  0  0  0  0  0  0  0  0  0
   -3.0000    0.0000    0.0000 O   0  0  0  0  0  0  0  0  0  0  0  0
   -0.7500    1.2990    0.0000 C   0  0  0  0  0  0  0  0  0  0  0  0
   -1.5000    2.5981    0.0000 F   0  0  0  0  0  0  0  0  0  0  0  0
    0.7500    1.2990    0.0000 C   0  0  0  0  0  0  0  0  0  0  0  0
    3.0000   -2.5981    0.0000 N   0  0  0  0  0  0  0  0  0  0  0  0
    3.7500   -3.8971    0.0000 R   0  0  0  0  0  1  0  0  0  1  0  0
    6.0000   -2.5981    0.0000 R   0  0  0  0  0  1  0  0  0  2  0  0
  1  2  2  0
  2  3  1  0
  3  4  1  6
  4  5  1  0
  5  6  2  0
  6  7  1  0
  7  8  2  0
  8  9  1  0
  8 10  1  0
 10 11  1  0
 10 12  2  0
  3 13  1  0
 13 14  1  0
  2 15  1  0
 12  5  1  0
M  END
>  <id>  (362) 
9aaf84e3-3ed1-4328-9a43-3a8f24c9d0eb

>  <Version>  (362) 
0

>  <Alias>  (362) 
3F-D-Tyr

>  <Type>  (362) 
amino_acid

>  <Smiles>  (362) 
O=C([C@@H](Cc1ccc(O)c(F)c1)N[*:1])[*:2]

>  <ProtectedSmiles>  (362) 
O=C(N[C@H](Cc1ccc(O)c(F)c1)C(=O)O)OCC1c2ccccc2-c2ccccc21

>  <CAS>  (362) 
1270300-80-5

>  <User>  (362) 
alice.granger@orbismedicines.com

>  <StereoComment>  (362) 
as drawn

>  <Name>  (362) 
D-Tyrosine, N-[(9H-fluoren-9-ylmethoxy)carbonyl]-3-fluoro- (ACI)

>  <Code>  (362) 
3F-D-Tyr

>  <AliasLowerCase>  (362) 
3f-d-tyr

>  <LatestVersion>  (362) 
0.0

>  <createdAt>  (362) 
2026-03-11T10:37:04.556Z

>  <updatedAt>  (362) 
2026-03-11T10:37:04.556Z

>  <NumRotatableBonds>  (362) 
4

>  <is_N_methyl>  (362) 
False

>  <is_a_methyl>  (362) 
False

>  <is_alpha_aa>  (362) 
True

>  <is_beta_aa>  (362) 
False

>  <is_S100_aa>  (362) 
False

>  <Murcko_SMILES>  (362) 
c1ccccc1

$$$$

     RDKit          2D

 15 15  0  0  0  0  0  0  0  0999 V2000
    8.2500   -1.2990    0.0000 O   0  0  0  0  0  0  0  0  0  0  0  0
    7.5000    0.0000    0.0000 C   0  0  0  0  0  0  0  0  0  0  0  0
    6.0000    0.0000    0.0000 C   0  0  0  0  0  0  0  0  0  0  0  0
    5.2500   -1.2990    0.0000 N   0  0  0  0  0  0  0  0  0  0  0  0
    3.7500   -1.2990    0.0000 C   0  0  0  0  0  0  0  0  0  0  0  0
    3.0000    0.0000    0.0000 C   0  0  0  0  0  0  0  0  0  0  0  0
    1.5000    0.0000    0.0000 C   0  0  0  0  0  0  0  0  0  0  0  0
    0.7500   -1.2990    0.0000 C   0  0  0  0  0  0  0  0  0  0  0  0
   -0.7500   -1.2990    0.0000 C   0  0  0  0  0  0  0  0  0  0  0  0
   -1.5000    0.0000    0.0000 C   0  0  0  0  0  0  0  0  0  0  0  0
   -3.0000    0.0000    0.0000 O   0  0  0  0  0  0  0  0  0  0  0  0
   -0.7500    1.2990    0.0000 C   0  0  0  0  0  0  0  0  0  0  0  0
    0.7500    1.2990    0.0000 C   0  0  0  0  0  0  0  0  0  0  0  0
    6.0000   -2.5981    0.0000 R   0  0  0  0  0  1  0  0  0  1  0  0
    8.2500    1.2990    0.0000 R   0  0  0  0  0  1  0  0  0  2  0  0
  1  2  2  0
  2  3  1  0
  3  4  1  0
  4  5  1  0
  5  6  1  0
  6  7  1  0
  7  8  2  0
  8  9  1  0
  9 10  2  0
 10 11  1  0
 10 12  1  0
 12 13  2  0
  4 14  1  0
  2 15  1  0
 13  7  1  0
M  END
>  <id>  (363) 
7e0eadf4-41c9-411d-a8f2-b432dce9105b

>  <Version>  (363) 
0

>  <Alias>  (363) 
4OtBu-BenzGly

>  <Type>  (363) 
amino_acid

>  <Smiles>  (363) 
O=C(CN(CCc1ccc(O)cc1)[*:1])[*:2]

>  <ProtectedSmiles>  (363) 
CC(C)(C)Oc1ccc(CCN(CC(=O)O)C(=O)OCC2c3ccccc3-c3ccccc32)cc1

>  <CAS>  (363) 
213820-67-8

>  <User>  (363) 
alice.granger@orbismedicines.com

>  <StereoComment>  (363) 
as drawn

>  <Name>  (363) 
2-({[4-(tert-butoxy)phenyl]methyl}({[(9H-fluoren-9-yl)methoxy]carbonyl})amino)acetic acid

>  <Code>  (363) 
4OtBu-BenzGly

>  <AliasLowerCase>  (363) 
4otbu-benzgly

>  <LatestVersion>  (363) 
0.0

>  <createdAt>  (363) 
2026-03-11T10:37:04.553Z

>  <updatedAt>  (363) 
2026-03-11T10:37:04.553Z

>  <NumRotatableBonds>  (363) 
5

>  <is_N_methyl>  (363) 
False

>  <is_a_methyl>  (363) 
False

>  <is_alpha_aa>  (363) 
True

>  <is_beta_aa>  (363) 
False

>  <is_S100_aa>  (363) 
False

>  <Murcko_SMILES>  (363) 
c1ccccc1

$$$$

     RDKit          2D

 12 12  0  0  0  0  0  0  0  0999 V2000
    3.0000   -2.5981    0.0000 O   0  0  0  0  0  0  0  0  0  0  0  0
    3.7500   -1.2990    0.0000 C   0  0  0  0  0  0  0  0  0  0  0  0
    3.0000    0.0000    0.0000 C   0  0  0  0  0  0  0  0  0  0  0  0
    3.7500    1.2990    0.0000 N   0  0  0  0  0  0  0  0  0  0  0  0
    5.2500    1.2990    0.0000 R   0  0  0  0  0  1  0  0  0  1  0  0
    1.5000    0.0000    0.0000 C   0  0  0  0  0  0  0  0  0  0  0  0
    0.7500   -1.2990    0.0000 C   0  0  0  0  0  0  0  0  0  0  0  0
   -0.7500   -1.2990    0.0000 C   0  0  0  0  0  0  0  0  0  0  0  0
   -1.5000    0.0000    0.0000 C   0  0  0  0  0  0  0  0  0  0  0  0
   -0.7500    1.2990    0.0000 C   0  0  0  0  0  0  0  0  0  0  0  0
    0.7500    1.2990    0.0000 C   0  0  0  0  0  0  0  0  0  0  0  0
    5.2500   -1.2990    0.0000 R   0  0  0  0  0  1  0  0  0  2  0  0
  1  2  2  0
  2  3  1  0
  3  4  1  1
  4  5  1  0
  3  6  1  0
  6  7  1  0
  7  8  1  0
  8  9  1  0
  9 10  1  0
 10 11  1  0
  2 12  1  0
 11  6  1  0
M  END
>  <id>  (364) 
4911decc-5c45-4dad-bd83-9d2a51d83ce9

>  <Version>  (364) 
0

>  <Alias>  (364) 
D-Chg

>  <Type>  (364) 
amino_acid

>  <Smiles>  (364) 
O=C([C@H](N[*:1])C1CCCCC1)[*:2]

>  <ProtectedSmiles>  (364) 
O=C(N[C@@H](C(=O)O)C1CCCCC1)OCC1c2ccccc2-c2ccccc21

>  <CAS>  (364) 
198543-96-3

>  <User>  (364) 
sevan.h

>  <StereoComment>  (364) 
as drawn

>  <Name>  (364) 
Fmoc-D-Chg-OH

>  <Code>  (364) 
D-Chg

>  <AliasLowerCase>  (364) 
d-chg

>  <LatestVersion>  (364) 
0.0

>  <createdAt>  (364) 
2026-01-14T12:16:26.927Z

>  <updatedAt>  (364) 
2026-01-14T12:16:26.927Z

>  <NumRotatableBonds>  (364) 
3

>  <is_N_methyl>  (364) 
False

>  <is_a_methyl>  (364) 
False

>  <is_alpha_aa>  (364) 
True

>  <is_beta_aa>  (364) 
False

>  <is_S100_aa>  (364) 
False

>  <Murcko_SMILES>  (364) 
C1CCCCC1

$$$$

     RDKit          2D

 11 10  0  0  0  0  0  0  0  0999 V2000
    6.4952    2.2500    0.0000 O   0  0  0  0  0  0  0  0  0  0  0  0
    6.4952    0.7500    0.0000 C   0  0  0  0  0  0  0  0  0  0  0  0
    7.7942   -0.0000    0.0000 O   0  0  0  0  0  0  0  0  0  0  0  0
    5.1962   -0.0000    0.0000 C   0  0  0  0  0  0  0  0  0  0  0  0
    3.8971    0.7500    0.0000 C   0  0  0  0  0  0  0  0  0  0  0  0
    2.5981   -0.0000    0.0000 C   0  0  0  0  0  0  0  0  0  0  0  0
    1.2990    0.7500    0.0000 N   0  0  0  0  0  0  0  0  0  0  0  0
    0.0000    0.0000    0.0000 R   0  0  0  0  0  1  0  0  0  1  0  0
    2.5981   -1.5000    0.0000 C   0  0  0  0  0  0  0  0  0  0  0  0
    1.2990   -2.2500    0.0000 O   0  0  0  0  0  0  0  0  0  0  0  0
    3.8971   -2.2500    0.0000 R   0  0  0  0  0  1  0  0  0  2  0  0
  1  2  2  0
  2  3  1  0
  2  4  1  0
  4  5  1  0
  6  5  1  6
  6  7  1  0
  7  8  1  0
  6  9  1  0
  9 10  2  0
  9 11  1  0
M  END
>  <id>  (365) 
626b9e0a-6ab4-46f7-b608-a0cbf996f05e

>  <Version>  (365) 
0

>  <Alias>  (365) 
D-Glu(OAll)

>  <Type>  (365) 
amino_acid

>  <Smiles>  (365) 
O=C(O)CC[C@@H](N[*:1])C(=O)[*:2]

>  <ProtectedSmiles>  (365) 
C=CCOC(=O)CC[C@@H](NC(=O)OCC1c2ccccc2-c2ccccc21)C(=O)O

>  <CAS>  (365) 
204251-33-2

>  <User>  (365) 
emile.b

>  <StereoComment>  (365) 
as drawn

>  <Name>  (365) 
Fmoc-D-Glu(OAll)-OH

>  <Code>  (365) 
D-Glu(OAll)

>  <AliasLowerCase>  (365) 
d-glu(oall)

>  <LatestVersion>  (365) 
0.0

>  <createdAt>  (365) 
2026-01-14T11:34:47.202Z

>  <updatedAt>  (365) 
2026-01-14T11:34:47.202Z

>  <NumRotatableBonds>  (365) 
5

>  <is_N_methyl>  (365) 
False

>  <is_a_methyl>  (365) 
False

>  <is_alpha_aa>  (365) 
True

>  <is_beta_aa>  (365) 
False

>  <is_S100_aa>  (365) 
False

>  <Murcko_SMILES>  (365) 


$$$$

     RDKit          2D

 10  9  0  0  0  0  0  0  0  0999 V2000
    5.1962   -1.5000    0.0000 O   0  0  0  0  0  0  0  0  0  0  0  0
    5.1962   -0.0000    0.0000 C   0  0  0  0  0  0  0  0  0  0  0  0
    6.4952    0.7500    0.0000 O   0  0  0  0  0  0  0  0  0  0  0  0
    3.8971    0.7500    0.0000 C   0  0  0  0  0  0  0  0  0  0  0  0
    2.5981   -0.0000    0.0000 C   0  0  0  0  0  0  0  0  0  0  0  0
    1.2990    0.7500    0.0000 N   0  0  0  0  0  0  0  0  0  0  0  0
    0.0000    0.0000    0.0000 R   0  0  0  0  0  1  0  0  0  1  0  0
    2.5981   -1.5000    0.0000 C   0  0  0  0  0  0  0  0  0  0  0  0
    1.2990   -2.2500    0.0000 O   0  0  0  0  0  0  0  0  0  0  0  0
    3.8971   -2.2500    0.0000 R   0  0  0  0  0  1  0  0  0  2  0  0
  1  2  2  0
  2  3  1  0
  2  4  1  0
  5  4  1  1
  5  6  1  0
  6  7  1  0
  5  8  1  0
  8  9  2  0
  8 10  1  0
M  END
>  <id>  (366) 
00ce4cf1-dbc0-41e5-b1a5-12e2021ea748

>  <Version>  (366) 
0

>  <Alias>  (366) 
Asp(OAll)

>  <Type>  (366) 
amino_acid

>  <Smiles>  (366) 
O=C(O)C[C@H](N[*:1])C(=O)[*:2]

>  <ProtectedSmiles>  (366) 
C=CCOC(=O)C[C@H](NC(=O)OCC1c2ccccc2-c2ccccc21)C(=O)O

>  <CAS>  (366) 
146982-24-3

>  <User>  (366) 
marie.g

>  <StereoComment>  (366) 
as drawn

>  <Name>  (366) 
Fmoc-Asp(OAll)-OH

>  <Code>  (366) 
Asp(OAll)

>  <AliasLowerCase>  (366) 
asp(oall)

>  <LatestVersion>  (366) 
0.0

>  <createdAt>  (366) 
2026-01-14T11:34:14.822Z

>  <updatedAt>  (366) 
2026-01-14T11:34:14.822Z

>  <NumRotatableBonds>  (366) 
4

>  <is_N_methyl>  (366) 
False

>  <is_a_methyl>  (366) 
False

>  <is_alpha_aa>  (366) 
True

>  <is_beta_aa>  (366) 
False

>  <is_S100_aa>  (366) 
False

>  <Murcko_SMILES>  (366) 


$$$$

     RDKit          2D

 11 10  0  0  0  0  0  0  0  0999 V2000
    5.9462    1.2990    0.0000 C   0  0  0  0  0  0  0  0  0  0  0  0
    5.1962   -0.0000    0.0000 C   0  0  0  0  0  0  0  0  0  0  0  0
    4.4462   -1.2990    0.0000 C   0  0  0  0  0  0  0  0  0  0  0  0
    6.4952   -0.7500    0.0000 C   0  0  0  0  0  0  0  0  0  0  0  0
    3.8971    0.7500    0.0000 C   0  0  0  0  0  0  0  0  0  0  0  0
    2.5981   -0.0000    0.0000 C   0  0  0  0  0  0  0  0  0  0  0  0
    1.2990    0.7500    0.0000 N   0  0  0  0  0  0  0  0  0  0  0  0
    0.0000    0.0000    0.0000 R   0  0  0  0  0  1  0  0  0  1  0  0
    2.5981   -1.5000    0.0000 C   0  0  0  0  0  0  0  0  0  0  0  0
    1.2990   -2.2500    0.0000 O   0  0  0  0  0  0  0  0  0  0  0  0
    3.8971   -2.2500    0.0000 R   0  0  0  0  0  1  0  0  0  2  0  0
  1  2  1  0
  2  3  1  0
  2  4  1  0
  2  5  1  0
  5  6  1  0
  6  7  1  0
  7  8  1  0
  6  9  1  0
  9 10  2  0
  9 11  1  0
M  END
>  <id>  (367) 
6f525c13-ea23-4deb-9be1-c8c265a151d4

>  <Version>  (367) 
0

>  <Alias>  (367) 
ractBuAla

>  <Type>  (367) 
amino_acid

>  <Smiles>  (367) 
CC(C)(C)CC(N[*:1])C(=O)[*:2]

>  <ProtectedSmiles>  (367) 
CC(C)(C)CC(NC(=O)OCC1c2ccccc2-c2ccccc21)C(=O)O

>  <CAS>  (367) 
1637650-31-7

>  <User>  (367) 
mischa.s

>  <StereoComment>  (367) 
as drawn

>  <Name>  (367) 
racemic 2-[[(9H-Fluoren-9-ylmethoxy)carbonyl]amino]-4,4-dimethylpentanoic acid

>  <Code>  (367) 
ractBuAla

>  <AliasLowerCase>  (367) 
ractbuala

>  <LatestVersion>  (367) 
0.0

>  <createdAt>  (367) 
2026-01-14T11:34:22.487Z

>  <updatedAt>  (367) 
2026-01-14T11:34:22.487Z

>  <NumRotatableBonds>  (367) 
3

>  <is_N_methyl>  (367) 
False

>  <is_a_methyl>  (367) 
False

>  <is_alpha_aa>  (367) 
True

>  <is_beta_aa>  (367) 
False

>  <is_S100_aa>  (367) 
False

>  <Murcko_SMILES>  (367) 


$$$$

     RDKit          2D

 11 11  0  0  0  0  0  0  0  0999 V2000
    3.0000    0.0000    0.0000 C   0  0  0  0  0  0  0  0  0  0  0  0
    1.5000    0.0000    0.0000 C   0  0  0  0  0  0  0  0  0  0  0  0
    0.7500   -1.2990    0.0000 C   0  0  0  0  0  0  0  0  0  0  0  0
   -0.7500   -1.2990    0.0000 C   0  0  0  0  0  0  0  0  0  0  0  0
   -1.5000    0.0000    0.0000 C   0  0  0  0  0  0  0  0  0  0  0  0
   -3.0000    0.0000    0.0000 C   0  0  0  0  0  0  0  0  0  0  0  0
   -3.7500   -1.2990    0.0000 O   0  0  0  0  0  0  0  0  0  0  0  0
   -3.7500    1.2990    0.0000 R   0  0  0  0  0  1  0  0  0  2  0  0
   -0.7500    1.2990    0.0000 N   0  0  0  0  0  0  0  0  0  0  0  0
   -1.5000    2.5981    0.0000 R   0  0  0  0  0  1  0  0  0  1  0  0
    0.7500    1.2990    0.0000 C   0  0  0  0  0  0  0  0  0  0  0  0
  2  1  1  6
  2  3  1  0
  3  4  1  0
  4  5  1  0
  5  6  1  6
  6  7  2  0
  6  8  1  0
  5  9  1  0
  9 10  1  0
  9 11  1  0
 11  2  1  0
M  END
>  <id>  (368) 
f86e4ac9-ff25-489e-bd69-f3325efde3dd

>  <Version>  (368) 
0

>  <Alias>  (368) 
5R-MePip

>  <Type>  (368) 
amino_acid

>  <Smiles>  (368) 
C[C@@H]1CC[C@H](C(=O)[*:2])N([*:1])C1

>  <ProtectedSmiles>  (368) 
C[C@@H]1CC[C@H](C(=O)O)N(C(=O)OCC2c3ccccc3-c3ccccc32)C1

>  <CAS>  (368) 
2227837-55-8

>  <User>  (368) 
Sevan.habeshian@orbismedicines.com

>  <StereoComment>  (368) 
as drawn

>  <Name>  (368) 
N/A

>  <Code>  (368) 
5R-MePip

>  <AliasLowerCase>  (368) 
5r-mepip

>  <LatestVersion>  (368) 
0.0

>  <createdAt>  (368) 
2026-02-13T09:56:35.397Z

>  <updatedAt>  (368) 
2026-02-13T09:56:35.397Z

>  <NumRotatableBonds>  (368) 
1

>  <is_N_methyl>  (368) 
False

>  <is_a_methyl>  (368) 
False

>  <is_alpha_aa>  (368) 
True

>  <is_beta_aa>  (368) 
False

>  <is_S100_aa>  (368) 
False

>  <Murcko_SMILES>  (368) 
C1CCNCC1

$$$$

     RDKit          2D

  8  7  0  0  0  0  0  0  0  0999 V2000
    1.2990   -2.2500    0.0000 O   0  0  0  0  0  0  0  0  0  0  0  0
    2.5981   -1.5000    0.0000 C   0  0  0  0  0  0  0  0  0  0  0  0
    2.5981   -0.0000    0.0000 C   0  0  0  0  0  0  0  0  0  0  0  0
    3.8971    0.7500    0.0000 C   0  0  0  0  0  0  0  0  0  0  0  0
    5.1962   -0.0000    0.0000 O   0  0  0  0  0  0  0  0  0  0  0  0
    1.2990    0.7500    0.0000 N   0  0  0  0  0  0  0  0  0  0  0  0
    0.0000    0.0000    0.0000 R   0  0  0  0  0  1  0  0  0  1  0  0
    3.8971   -2.2500    0.0000 R   0  0  0  0  0  1  0  0  0  2  0  0
  1  2  2  0
  2  3  1  0
  3  4  1  1
  4  5  1  0
  3  6  1  0
  6  7  1  0
  2  8  1  0
M  END
>  <id>  (369) 
f16885c2-88b0-4eb7-a1fb-e78653a3a91d

>  <Version>  (369) 
0

>  <Alias>  (369) 
Ser_UP

>  <Type>  (369) 
amino_acid

>  <Smiles>  (369) 
O=C([C@H](CO)N[*:1])[*:2]

>  <ProtectedSmiles>  (369) 
O=C(N[C@@H](CO)C(=O)O)OCC1c2ccccc2-c2ccccc21

>  <CAS>  (369) 
73724-45-5

>  <User>  (369) 
Sevan.habeshian@orbismedicines.com

>  <StereoComment>  (369) 
as drawn

>  <Name>  (369) 
N/A

>  <Code>  (369) 
Ser_UP

>  <AliasLowerCase>  (369) 
ser_up

>  <LatestVersion>  (369) 
0.0

>  <createdAt>  (369) 
2026-02-13T09:56:35.508Z

>  <updatedAt>  (369) 
2026-02-13T09:56:35.508Z

>  <NumRotatableBonds>  (369) 
3

>  <is_N_methyl>  (369) 
False

>  <is_a_methyl>  (369) 
False

>  <is_alpha_aa>  (369) 
True

>  <is_beta_aa>  (369) 
False

>  <is_S100_aa>  (369) 
False

>  <Murcko_SMILES>  (369) 


$$$$

     RDKit          2D

 14 15  0  0  0  0  0  0  0  0999 V2000
    0.0000   -5.1073    0.0000 C   0  0  0  0  0  0  0  0  0  0  0  0
   -0.0000   -3.6073    0.0000 C   0  0  0  0  0  0  0  0  0  0  0  0
   -1.2135   -2.7256    0.0000 N   0  0  0  0  0  0  0  0  0  0  0  0
   -0.7500   -1.2990    0.0000 C   0  0  0  0  0  0  0  0  0  0  0  0
    0.7500   -1.2990    0.0000 N   0  0  0  0  0  0  0  0  0  0  0  0
    1.2135   -2.7256    0.0000 C   0  0  0  0  0  0  0  0  0  0  0  0
    2.6401   -3.1891    0.0000 C   0  0  0  0  0  0  0  0  0  0  0  0
    3.7548   -2.1855    0.0000 O   0  0  0  0  0  0  0  0  0  0  0  0
    2.9520   -4.6564    0.0000 R   0  0  0  0  0  1  0  0  0  2  0  0
    1.5000    0.0000    0.0000 C   0  0  0  0  0  0  0  0  0  0  0  0
    0.7500    1.2990    0.0000 C   0  0  0  0  0  0  0  0  0  0  0  0
   -0.7500    1.2990    0.0000 N   0  0  0  0  0  0  0  0  0  0  0  0
   -1.5000    2.5981    0.0000 R   0  0  0  0  0  1  0  0  0  1  0  0
   -1.5000    0.0000    0.0000 C   0  0  0  0  0  0  0  0  0  0  0  0
  1  2  1  0
  2  3  1  0
  3  4  2  0
  4  5  1  0
  5  6  1  0
  6  7  1  0
  7  8  2  0
  7  9  1  0
  5 10  1  0
 10 11  1  0
 11 12  1  0
 12 13  1  0
 12 14  1  0
  6  2  2  0
 14  4  1  0
M  END
>  <id>  (370) 
a84419d3-6a2d-4197-98d6-5092395e5d65

>  <Version>  (370) 
0

>  <Alias>  (370) 
MeImidzPiprzn

>  <Type>  (370) 
amino_acid

>  <Smiles>  (370) 
Cc1nc2n(c1C(=O)[*:2])CCN([*:1])C2

>  <ProtectedSmiles>  (370) 
Cc1nc2n(c1C(=O)O)CCN(C(=O)OCC1c3ccccc3-c3ccccc31)C2

>  <CAS>  (370) 
2702297-97-8

>  <User>  (370) 
Sevan.habeshian@orbismedicines.com

>  <StereoComment>  (370) 
as drawn

>  <Name>  (370) 
N/A

>  <Code>  (370) 
MeImidzPiprzn

>  <AliasLowerCase>  (370) 
meimidzpiprzn

>  <LatestVersion>  (370) 
0.0

>  <createdAt>  (370) 
2026-02-13T09:56:35.523Z

>  <updatedAt>  (370) 
2026-02-13T09:56:35.523Z

>  <NumRotatableBonds>  (370) 
1

>  <is_N_methyl>  (370) 
False

>  <is_a_methyl>  (370) 
False

>  <is_alpha_aa>  (370) 
False

>  <is_beta_aa>  (370) 
False

>  <is_S100_aa>  (370) 
False

>  <Murcko_SMILES>  (370) 
c1cn2c(n1)CNCC2

$$$$

     RDKit          2D

  8  8  0  0  0  0  0  0  0  0999 V2000
    3.3107    1.2990    0.0000 O   0  0  0  0  0  0  0  0  0  0  0  0
    2.5607    0.0000    0.0000 C   0  0  0  0  0  0  0  0  0  0  0  0
    1.0607    0.0000    0.0000 C   0  0  0  0  0  0  0  0  0  0  0  0
   -0.0000   -1.0607    0.0000 C   0  0  0  0  0  0  0  0  0  0  0  0
   -1.0607    0.0000    0.0000 C   0  0  0  0  0  0  0  0  0  0  0  0
    0.0000    1.0607    0.0000 N   0  0  0  0  0  0  0  0  0  0  0  0
    0.0000    2.5607    0.0000 R   0  0  0  0  0  1  0  0  0  1  0  0
    3.3107   -1.2990    0.0000 R   0  0  0  0  0  1  0  0  0  2  0  0
  1  2  2  0
  3  2  1  6
  3  4  1  0
  4  5  1  0
  5  6  1  0
  6  7  1  0
  2  8  1  0
  6  3  1  0
M  END
>  <id>  (371) 
3520ff15-7f6c-450c-86c7-ca390a336684

>  <Version>  (371) 
0

>  <Alias>  (371) 
2Azet

>  <Type>  (371) 
amino_acid

>  <Smiles>  (371) 
O=C([C@@H]1CCN1[*:1])[*:2]

>  <ProtectedSmiles>  (371) 
O=C(O)[C@@H]1CCN1C(=O)OCC1c2ccccc2-c2ccccc21

>  <CAS>  (371) 
136552-06-2

>  <User>  (371) 
sevan.h

>  <StereoComment>  (371) 
as drawn

>  <Name>  (371) 
(S)-N-Fmoc-azetidine-2-carboxylic acid

>  <Code>  (371) 
2Azet

>  <AliasLowerCase>  (371) 
2azet

>  <LatestVersion>  (371) 
0.0

>  <createdAt>  (371) 
2026-01-14T12:16:39.553Z

>  <updatedAt>  (371) 
2026-01-14T12:16:39.553Z

>  <NumRotatableBonds>  (371) 
1

>  <is_N_methyl>  (371) 
False

>  <is_a_methyl>  (371) 
False

>  <is_alpha_aa>  (371) 
True

>  <is_beta_aa>  (371) 
False

>  <is_S100_aa>  (371) 
False

>  <Murcko_SMILES>  (371) 
C1CNC1

$$$$

     RDKit          2D

  9  9  0  0  0  0  0  0  0  0999 V2000
    2.5607   -2.5981    0.0000 O   0  0  0  0  0  0  0  0  0  0  0  0
    3.3107   -1.2990    0.0000 C   0  0  0  0  0  0  0  0  0  0  0  0
    2.5607    0.0000    0.0000 C   0  0  0  0  0  0  0  0  0  0  0  0
    1.0607    0.0000    0.0000 C   0  0  0  0  0  0  0  0  0  0  0  0
   -0.0000   -1.0607    0.0000 C   0  0  0  0  0  0  0  0  0  0  0  0
   -1.0607    0.0000    0.0000 C   0  0  0  0  0  0  0  0  0  0  0  0
    0.0000    1.0607    0.0000 N   0  0  0  0  0  0  0  0  0  0  0  0
    0.0000    2.5607    0.0000 R   0  0  0  0  0  1  0  0  0  1  0  0
    4.8107   -1.2990    0.0000 R   0  0  0  0  0  1  0  0  0  2  0  0
  1  2  2  0
  2  3  1  0
  3  4  1  0
  4  5  1  0
  5  6  1  0
  6  7  1  0
  7  8  1  0
  2  9  1  0
  7  4  1  0
M  END
>  <id>  (372) 
9960468e-5983-4647-bfd1-e26da675c9f0

>  <Version>  (372) 
0

>  <Alias>  (372) 
h2Azet

>  <Type>  (372) 
amino_acid

>  <Smiles>  (372) 
O=C(CC1CCN1[*:1])[*:2]

>  <ProtectedSmiles>  (372) 
O=C(O)CC1CCN1C(=O)OCC1c2ccccc2-c2ccccc21

>  <CAS>  (372) 
2138138-02-8

>  <User>  (372) 
angelica.l

>  <StereoComment>  (372) 
as drawn

>  <Name>  (372) 
2-(1-{[(9H-fluoren-9-yl)methoxy]carbonyl}azetidin-2-yl)acetic acid

>  <Code>  (372) 
h2Azet

>  <AliasLowerCase>  (372) 
h2azet

>  <LatestVersion>  (372) 
0.0

>  <createdAt>  (372) 
2026-01-14T11:34:28.038Z

>  <updatedAt>  (372) 
2026-01-14T11:34:28.038Z

>  <NumRotatableBonds>  (372) 
2

>  <is_N_methyl>  (372) 
False

>  <is_a_methyl>  (372) 
False

>  <is_alpha_aa>  (372) 
False

>  <is_beta_aa>  (372) 
True

>  <is_S100_aa>  (372) 
False

>  <Murcko_SMILES>  (372) 
C1CNC1

$$$$

     RDKit          2D

 11 11  0  0  0  0  0  0  0  0999 V2000
    2.7760   -2.5981    0.0000 O   0  0  0  0  0  0  0  0  0  0  0  0
    3.5260   -1.2990    0.0000 C   0  0  0  0  0  0  0  0  0  0  0  0
    2.7760    0.0000    0.0000 C   0  0  0  0  0  0  0  0  0  0  0  0
    1.2760    0.0000    0.0000 C   0  0  0  0  0  0  0  0  0  0  0  0
    0.3943    1.2135    0.0000 C   0  0  0  0  0  0  0  0  0  0  0  0
   -1.0323    0.7500    0.0000 C   0  0  0  0  0  0  0  0  0  0  0  0
   -1.0323   -0.7500    0.0000 C   0  0  0  0  0  0  0  0  0  0  0  0
   -2.2458   -1.6317    0.0000 N   0  0  0  0  0  0  0  0  0  0  0  0
   -3.6161   -1.0216    0.0000 R   0  0  0  0  0  1  0  0  0  1  0  0
    0.3943   -1.2135    0.0000 C   0  0  0  0  0  0  0  0  0  0  0  0
    5.0260   -1.2990    0.0000 R   0  0  0  0  0  1  0  0  0  2  0  0
  1  2  2  0
  2  3  1  0
  3  4  1  0
  4  5  1  0
  5  6  1  0
  6  7  1  0
  7  8  1  0
  8  9  1  0
  7 10  1  0
  2 11  1  0
 10  4  1  0
M  END
>  <id>  (373) 
230d1a55-1b1a-4add-b5de-804141b937ea

>  <Version>  (373) 
0

>  <Alias>  (373) 
1,3-cPentAcOH

>  <Type>  (373) 
amino_acid

>  <Smiles>  (373) 
O=C(CC1CCC(N[*:1])C1)[*:2]

>  <ProtectedSmiles>  (373) 
O=C(O)CC1CCC(NC(=O)OCC2c3ccccc3-c3ccccc32)C1

>  <CAS>  (373) 
1869824-13-4

>  <User>  (373) 
marie.g

>  <StereoComment>  (373) 
as drawn

>  <Name>  (373) 
2-(3-((((9H-Fluoren-9-yl)methoxy)carbonyl)amino)cyclopentyl)acetic acid

>  <Code>  (373) 
1,3-cPentAcOH

>  <AliasLowerCase>  (373) 
1,3-cpentacoh

>  <LatestVersion>  (373) 
0.0

>  <createdAt>  (373) 
2026-01-14T11:33:43.657Z

>  <updatedAt>  (373) 
2026-01-14T11:33:43.657Z

>  <NumRotatableBonds>  (373) 
3

>  <is_N_methyl>  (373) 
False

>  <is_a_methyl>  (373) 
False

>  <is_alpha_aa>  (373) 
False

>  <is_beta_aa>  (373) 
False

>  <is_S100_aa>  (373) 
False

>  <Murcko_SMILES>  (373) 
C1CCCC1

$$$$

     RDKit          2D

 10  9  0  0  0  0  0  0  0  0999 V2000
    7.7942   -0.0000    0.0000 C   0  0  0  0  0  0  0  0  0  0  0  0
    6.4952    0.7500    0.0000 C   0  0  0  0  0  0  0  0  0  0  0  0
    5.1962   -0.0000    0.0000 C   0  0  0  0  0  0  0  0  0  0  0  0
    3.8971    0.7500    0.0000 C   0  0  0  0  0  0  0  0  0  0  0  0
    2.5981   -0.0000    0.0000 C   0  0  0  0  0  0  0  0  0  0  0  0
    1.2990    0.7500    0.0000 C   0  0  0  0  0  0  0  0  0  0  0  0
    1.2990    2.2500    0.0000 O   0  0  0  0  0  0  0  0  0  0  0  0
    0.0000    0.0000    0.0000 R   0  0  0  0  0  1  0  0  0  2  0  0
    3.8971    2.2500    0.0000 N   0  0  0  0  0  0  0  0  0  0  0  0
    5.1962    3.0000    0.0000 R   0  0  0  0  0  1  0  0  0  1  0  0
  1  2  1  0
  2  3  1  0
  4  3  1  6
  4  5  1  0
  5  6  1  0
  6  7  2  0
  6  8  1  0
  4  9  1  0
  9 10  1  0
M  END
>  <id>  (374) 
8c3f1eae-a8c4-4b2a-b9a9-2dd1274c0c9e

>  <Version>  (374) 
0

>  <Alias>  (374) 
3R-(nPr)PA

>  <Type>  (374) 
amino_acid

>  <Smiles>  (374) 
CCC[C@H](CC(=O)[*:2])N[*:1]

>  <ProtectedSmiles>  (374) 
CCC[C@H](CC(=O)O)NC(=O)OCC1c2ccccc2-c2ccccc21

>  <CAS>  (374) 
244227-62-1

>  <User>  (374) 
Sevan.habeshian@orbismedicines.com

>  <StereoComment>  (374) 
as drawn

>  <Name>  (374) 
N/A

>  <Code>  (374) 
3R-(nPr)PA

>  <AliasLowerCase>  (374) 
3r-(npr)pa

>  <LatestVersion>  (374) 
0.0

>  <createdAt>  (374) 
2026-02-13T09:56:36.389Z

>  <updatedAt>  (374) 
2026-02-13T09:56:36.389Z

>  <NumRotatableBonds>  (374) 
5

>  <is_N_methyl>  (374) 
False

>  <is_a_methyl>  (374) 
False

>  <is_alpha_aa>  (374) 
False

>  <is_beta_aa>  (374) 
True

>  <is_S100_aa>  (374) 
False

>  <Murcko_SMILES>  (374) 


$$$$

     RDKit          2D

 10  9  0  0  0  0  0  0  0  0999 V2000
    5.1962    3.0000    0.0000 C   0  0  0  0  0  0  0  0  0  0  0  0
    3.8971    2.2500    0.0000 C   0  0  0  0  0  0  0  0  0  0  0  0
    3.8971    0.7500    0.0000 C   0  0  0  0  0  0  0  0  0  0  0  0
    5.1962   -0.0000    0.0000 C   0  0  0  0  0  0  0  0  0  0  0  0
    2.5981   -0.0000    0.0000 C   0  0  0  0  0  0  0  0  0  0  0  0
    1.2990    0.7500    0.0000 N   0  0  0  0  0  0  0  0  0  0  0  0
    0.0000    0.0000    0.0000 R   0  0  0  0  0  1  0  0  0  1  0  0
    2.5981   -1.5000    0.0000 C   0  0  0  0  0  0  0  0  0  0  0  0
    1.2990   -2.2500    0.0000 O   0  0  0  0  0  0  0  0  0  0  0  0
    3.8971   -2.2500    0.0000 R   0  0  0  0  0  1  0  0  0  2  0  0
  1  2  1  0
  2  3  1  0
  3  4  1  6
  3  5  1  0
  5  6  1  1
  6  7  1  0
  5  8  1  0
  8  9  2  0
  8 10  1  0
M  END
>  <id>  (375) 
d26f67ab-2e87-448c-8cd7-2e7b3b3f9362

>  <Version>  (375) 
0

>  <Alias>  (375) 
Ile

>  <Type>  (375) 
amino_acid

>  <Smiles>  (375) 
CC[C@H](C)[C@H](N[*:1])C(=O)[*:2]

>  <ProtectedSmiles>  (375) 
CC[C@H](C)[C@H](NC(=O)OCC1c2ccccc2-c2ccccc21)C(=O)O

>  <CAS>  (375) 
71989-23-6

>  <User>  (375) 
sevan.h

>  <StereoComment>  (375) 
as drawn

>  <Name>  (375) 
Fmoc-Ile-OH

>  <Code>  (375) 
Ile

>  <AliasLowerCase>  (375) 
ile

>  <LatestVersion>  (375) 
0.0

>  <createdAt>  (375) 
2026-01-14T12:17:19.710Z

>  <updatedAt>  (375) 
2026-01-14T12:17:19.710Z

>  <NumRotatableBonds>  (375) 
4

>  <is_N_methyl>  (375) 
False

>  <is_a_methyl>  (375) 
False

>  <is_alpha_aa>  (375) 
True

>  <is_beta_aa>  (375) 
False

>  <is_S100_aa>  (375) 
False

>  <Murcko_SMILES>  (375) 


$$$$

     RDKit          2D

 14 14  0  0  0  0  0  0  0  0999 V2000
    5.2500   -3.8971    0.0000 O   0  0  0  0  0  0  0  0  0  0  0  0
    6.0000   -2.5981    0.0000 C   0  0  0  0  0  0  0  0  0  0  0  0
    5.2500   -1.2990    0.0000 C   0  0  0  0  0  0  0  0  0  0  0  0
    3.7500   -1.2990    0.0000 C   0  0  0  0  0  0  0  0  0  0  0  0
    3.0000    0.0000    0.0000 C   0  0  0  0  0  0  0  0  0  0  0  0
    1.5000    0.0000    0.0000 C   0  0  0  0  0  0  0  0  0  0  0  0
    0.7500   -1.2990    0.0000 C   0  0  0  0  0  0  0  0  0  0  0  0
   -0.7500   -1.2990    0.0000 C   0  0  0  0  0  0  0  0  0  0  0  0
   -1.5000    0.0000    0.0000 C   0  0  0  0  0  0  0  0  0  0  0  0
   -0.7500    1.2990    0.0000 C   0  0  0  0  0  0  0  0  0  0  0  0
    0.7500    1.2990    0.0000 C   0  0  0  0  0  0  0  0  0  0  0  0
    6.0000    0.0000    0.0000 N   0  0  0  0  0  0  0  0  0  0  0  0
    7.5000    0.0000    0.0000 R   0  0  0  0  0  1  0  0  0  1  0  0
    7.5000   -2.5981    0.0000 R   0  0  0  0  0  1  0  0  0  2  0  0
  1  2  2  0
  2  3  1  0
  3  4  1  6
  4  5  1  0
  5  6  1  0
  6  7  2  0
  7  8  1  0
  8  9  2  0
  9 10  1  0
 10 11  2  0
  3 12  1  0
 12 13  1  0
  2 14  1  0
 11  6  1  0
M  END
>  <id>  (376) 
c0956465-54fd-4cbf-a5ac-406312bc68fd

>  <Version>  (376) 
0

>  <Alias>  (376) 
hPhe

>  <Type>  (376) 
amino_acid

>  <Smiles>  (376) 
O=C([C@H](CCc1ccccc1)N[*:1])[*:2]

>  <ProtectedSmiles>  (376) 
O=C(N[C@@H](CCc1ccccc1)C(=O)O)OCC1c2ccccc2-c2ccccc21

>  <CAS>  (376) 
132684-59-4

>  <User>  (376) 
sevan.h

>  <StereoComment>  (376) 
as drawn

>  <Name>  (376) 
Fmoc-L-homophenylalanine

>  <Code>  (376) 
hPhe

>  <AliasLowerCase>  (376) 
hphe

>  <LatestVersion>  (376) 
0.0

>  <createdAt>  (376) 
2026-01-14T12:17:32.104Z

>  <updatedAt>  (376) 
2026-01-14T12:17:32.104Z

>  <NumRotatableBonds>  (376) 
5

>  <is_N_methyl>  (376) 
False

>  <is_a_methyl>  (376) 
False

>  <is_alpha_aa>  (376) 
True

>  <is_beta_aa>  (376) 
False

>  <is_S100_aa>  (376) 
False

>  <Murcko_SMILES>  (376) 
c1ccccc1

$$$$

     RDKit          2D

 16 17  0  0  0  0  0  0  0  0999 V2000
   -5.1793    6.2320    0.0000 O   0  0  0  0  0  0  0  0  0  0  0  0
   -3.7527    6.6955    0.0000 C   0  0  0  0  0  0  0  0  0  0  0  0
   -2.6380    5.6918    0.0000 C   0  0  0  0  0  0  0  0  0  0  0  0
   -2.9499    4.2246    0.0000 C   0  0  0  0  0  0  0  0  0  0  0  0
   -1.8351    3.2209    0.0000 C   0  0  0  0  0  0  0  0  0  0  0  0
   -0.4086    3.6844    0.0000 C   0  0  0  0  0  0  0  0  0  0  0  0
    0.7062    2.6807    0.0000 C   0  0  0  0  0  0  0  0  0  0  0  0
    0.3943    1.2135    0.0000 C   0  0  0  0  0  0  0  0  0  0  0  0
    1.2760    0.0000    0.0000 N   0  0  0  0  0  0  0  0  0  0  0  0
    0.3943   -1.2135    0.0000 N   0  0  0  0  0  0  0  0  0  0  0  0
   -1.0323   -0.7500    0.0000 C   0  0  0  0  0  0  0  0  0  0  0  0
   -1.0323    0.7500    0.0000 C   0  0  0  0  0  0  0  0  0  0  0  0
   -2.1470    1.7537    0.0000 C   0  0  0  0  0  0  0  0  0  0  0  0
   -1.2114    6.1554    0.0000 N   0  0  0  0  0  0  0  0  0  0  0  0
   -0.8995    7.6226    0.0000 R   0  0  0  0  0  1  0  0  0  1  0  0
   -3.4408    8.1628    0.0000 R   0  0  0  0  0  1  0  0  0  2  0  0
  1  2  2  0
  2  3  1  0
  3  4  1  0
  4  5  1  0
  5  6  2  0
  6  7  1  0
  7  8  2  0
  8  9  1  0
  9 10  1  0
 10 11  2  0
 11 12  1  0
 12 13  2  0
  3 14  1  0
 14 15  1  0
  2 16  1  0
 13  5  1  0
 12  8  1  0
M  END
>  <id>  (377) 
781927c5-48f8-487c-a67a-078b7653a092

>  <Version>  (377) 
0

>  <Alias>  (377) 
racIndazol3PA

>  <Type>  (377) 
amino_acid

>  <Smiles>  (377) 
O=C(C(Cc1ccc2[nH]ncc2c1)N[*:1])[*:2]

>  <ProtectedSmiles>  (377) 
O=C(NC(Cc1ccc2[nH]ncc2c1)C(=O)O)OCC1c2ccccc2-c2ccccc21

>  <CAS>  (377) 
1145678-35-8

>  <User>  (377) 
angelica.l

>  <StereoComment>  (377) 
as drawn

>  <Name>  (377) 
2-{[(9H-fluoren-9-ylmethoxy)carbonyl]amino}-3-(1H-indazol-5-yl)propanoic acid

>  <Code>  (377) 
racIndazol3PA

>  <AliasLowerCase>  (377) 
racindazol3pa

>  <LatestVersion>  (377) 
0.0

>  <createdAt>  (377) 
2026-01-14T11:35:16.325Z

>  <updatedAt>  (377) 
2026-01-14T11:35:16.325Z

>  <NumRotatableBonds>  (377) 
4

>  <is_N_methyl>  (377) 
False

>  <is_a_methyl>  (377) 
False

>  <is_alpha_aa>  (377) 
True

>  <is_beta_aa>  (377) 
False

>  <is_S100_aa>  (377) 
False

>  <Murcko_SMILES>  (377) 
c1ccc2[nH]ncc2c1

$$$$

     RDKit          2D

 13 12  0  0  0  0  0  0  0  0999 V2000
   10.3923   -0.0000    0.0000 N   0  0  0  0  0  0  0  0  0  0  0  0
    9.0933    0.7500    0.0000 C   0  0  0  0  0  0  0  0  0  0  0  0
    9.0933    2.2500    0.0000 N   0  0  0  0  0  0  0  0  0  0  0  0
    7.7942   -0.0000    0.0000 N   0  0  0  0  0  0  0  0  0  0  0  0
    6.4952    0.7500    0.0000 C   0  0  0  0  0  0  0  0  0  0  0  0
    5.1962   -0.0000    0.0000 C   0  0  0  0  0  0  0  0  0  0  0  0
    3.8971    0.7500    0.0000 C   0  0  0  0  0  0  0  0  0  0  0  0
    2.5981   -0.0000    0.0000 C   0  0  0  0  0  0  0  0  0  0  0  0
    1.2990    0.7500    0.0000 N   0  0  0  0  0  0  0  0  0  0  0  0
    0.0000    0.0000    0.0000 R   0  0  0  0  0  1  0  0  0  1  0  0
    2.5981   -1.5000    0.0000 C   0  0  0  0  0  0  0  0  0  0  0  0
    1.2990   -2.2500    0.0000 O   0  0  0  0  0  0  0  0  0  0  0  0
    3.8971   -2.2500    0.0000 R   0  0  0  0  0  1  0  0  0  2  0  0
  1  2  1  0
  2  3  1  0
  2  4  2  0
  4  5  1  0
  5  6  1  0
  6  7  1  0
  8  7  1  1
  8  9  1  0
  9 10  1  0
  8 11  1  0
 11 12  2  0
 11 13  1  0
M  END
>  <id>  (378) 
a7c9df33-3a03-43bf-a9b8-a09d4b316d96

>  <Version>  (378) 
0

>  <Alias>  (378) 
Arg(Pbf)

>  <Type>  (378) 
amino_acid

>  <Smiles>  (378) 
NC(N)=NCCC[C@H](N[*:1])C(=O)[*:2]

>  <ProtectedSmiles>  (378) 
Cc1c(C)c(S(=O)(=O)N/C(N)=N/CCC[C@H](NC(=O)OCC2c3ccccc3-c3ccccc32)C(=O)O)c(C)c2c1OC(C)(C)C2

>  <CAS>  (378) 
154445-77-9

>  <User>  (378) 
mischa.s

>  <StereoComment>  (378) 
as drawn

>  <Name>  (378) 
Fmoc-L-Arg(Pbf)-OH

>  <Code>  (378) 
Arg(Pbf)

>  <AliasLowerCase>  (378) 
arg(pbf)

>  <LatestVersion>  (378) 
0.0

>  <createdAt>  (378) 
2026-01-14T11:37:03.272Z

>  <updatedAt>  (378) 
2026-01-14T11:37:03.272Z

>  <NumRotatableBonds>  (378) 
6

>  <is_N_methyl>  (378) 
False

>  <is_a_methyl>  (378) 
False

>  <is_alpha_aa>  (378) 
True

>  <is_beta_aa>  (378) 
False

>  <is_S100_aa>  (378) 
False

>  <Murcko_SMILES>  (378) 


$$$$

     RDKit          2D

 11 10  0  0  0  0  0  0  0  0999 V2000
    9.0933    0.7500    0.0000 N   0  0  0  0  0  0  0  0  0  0  0  0
    7.7942   -0.0000    0.0000 C   0  0  0  0  0  0  0  0  0  0  0  0
    6.4952    0.7500    0.0000 C   0  0  0  0  0  0  0  0  0  0  0  0
    5.1962   -0.0000    0.0000 C   0  0  0  0  0  0  0  0  0  0  0  0
    3.8971    0.7500    0.0000 C   0  0  0  0  0  0  0  0  0  0  0  0
    2.5981   -0.0000    0.0000 C   0  0  0  0  0  0  0  0  0  0  0  0
    1.2990    0.7500    0.0000 N   0  0  0  0  0  0  0  0  0  0  0  0
    0.0000    0.0000    0.0000 R   0  0  0  0  0  1  0  0  0  1  0  0
    2.5981   -1.5000    0.0000 C   0  0  0  0  0  0  0  0  0  0  0  0
    1.2990   -2.2500    0.0000 O   0  0  0  0  0  0  0  0  0  0  0  0
    3.8971   -2.2500    0.0000 R   0  0  0  0  0  1  0  0  0  2  0  0
  1  2  1  0
  2  3  1  0
  3  4  1  0
  4  5  1  0
  6  5  1  1
  6  7  1  0
  7  8  1  0
  6  9  1  0
  9 10  2  0
  9 11  1  0
M  END
>  <id>  (379) 
04ba0d78-8e0b-451f-9e0c-6f8453344448

>  <Version>  (379) 
0

>  <Alias>  (379) 
Lys(Trt)

>  <Type>  (379) 
amino_acid

>  <Smiles>  (379) 
NCCCC[C@H](N[*:1])C(=O)[*:2]

>  <ProtectedSmiles>  (379) 
O=C(N[C@@H](CCCCNC(c1ccccc1)(c1ccccc1)c1ccccc1)C(=O)O)OCC1c2ccccc2-c2ccccc21

>  <CAS>  (379) 
111061-54-2

>  <User>  (379) 
emile.b

>  <StereoComment>  (379) 
as drawn

>  <Name>  (379) 
Fmoc-Lys(Trt)-OH

>  <Code>  (379) 
Lys(Trt)

>  <AliasLowerCase>  (379) 
lys(trt)

>  <LatestVersion>  (379) 
0.0

>  <createdAt>  (379) 
2026-01-14T11:35:40.892Z

>  <updatedAt>  (379) 
2026-01-14T11:35:40.892Z

>  <NumRotatableBonds>  (379) 
6

>  <is_N_methyl>  (379) 
False

>  <is_a_methyl>  (379) 
False

>  <is_alpha_aa>  (379) 
True

>  <is_beta_aa>  (379) 
False

>  <is_S100_aa>  (379) 
False

>  <Murcko_SMILES>  (379) 


$$$$

     RDKit          2D

 12 12  0  0  0  0  0  0  0  0999 V2000
    2.7760    0.0000    0.0000 C   0  0  0  0  0  0  0  0  0  0  0  0
    1.2760    0.0000    0.0000 C   0  0  0  0  0  0  0  0  0  0  0  0
    0.3943    1.2135    0.0000 N   0  0  0  0  0  0  0  0  0  0  0  0
   -1.0323    0.7500    0.0000 C   0  0  0  0  0  0  0  0  0  0  0  0
   -2.2458    1.6317    0.0000 C   0  0  0  0  0  0  0  0  0  0  0  0
   -2.0890    3.1235    0.0000 N   0  0  0  0  0  0  0  0  0  0  0  0
   -3.3025    4.0051    0.0000 R   0  0  0  0  0  1  0  0  0  1  0  0
   -1.0323   -0.7500    0.0000 S   0  0  0  0  0  0  0  0  0  0  0  0
    0.3943   -1.2135    0.0000 C   0  0  0  0  0  0  0  0  0  0  0  0
    0.8578   -2.6401    0.0000 C   0  0  0  0  0  0  0  0  0  0  0  0
    2.3250   -2.9520    0.0000 O   0  0  0  0  0  0  0  0  0  0  0  0
   -0.1459   -3.7548    0.0000 R   0  0  0  0  0  1  0  0  0  2  0  0
  1  2  1  0
  2  3  1  0
  3  4  2  0
  4  5  1  0
  5  6  1  0
  6  7  1  0
  4  8  1  0
  8  9  1  0
  9 10  1  0
 10 11  2  0
 10 12  1  0
  9  2  2  0
M  END
>  <id>  (380) 
6785111c-8e65-4df1-b8fa-192503e0dba4

>  <Version>  (380) 
0

>  <Alias>  (380) 
1,3Thz5CA

>  <Type>  (380) 
amino_acid

>  <Smiles>  (380) 
Cc1nc(CN[*:1])sc1C(=O)[*:2]

>  <ProtectedSmiles>  (380) 
Cc1nc(CNC(=O)OCC2c3ccccc3-c3ccccc32)sc1C(=O)O

>  <CAS>  (380) 
1340415-08-8

>  <User>  (380) 
ebr@orbismedicines.com

>  <StereoComment>  (380) 
as drawn

>  <Name>  (380) 
1,3Thz5CA

>  <Code>  (380) 
1,3Thz5CA

>  <AliasLowerCase>  (380) 
1,3thz5ca

>  <LatestVersion>  (380) 
0.0

>  <createdAt>  (380) 
2026-01-15T09:28:34.569Z

>  <updatedAt>  (380) 
2026-01-15T09:28:34.569Z

>  <NumRotatableBonds>  (380) 
3

>  <is_N_methyl>  (380) 
False

>  <is_a_methyl>  (380) 
False

>  <is_alpha_aa>  (380) 
False

>  <is_beta_aa>  (380) 
False

>  <is_S100_aa>  (380) 
False

>  <Murcko_SMILES>  (380) 
c1cscn1

$$$$

     RDKit          2D

  9  9  0  0  0  0  0  0  0  0999 V2000
    3.5260    1.2990    0.0000 O   0  0  0  0  0  0  0  0  0  0  0  0
    2.7760    0.0000    0.0000 C   0  0  0  0  0  0  0  0  0  0  0  0
    1.2760    0.0000    0.0000 C   0  0  0  0  0  0  0  0  0  0  0  0
    0.3943    1.2135    0.0000 C   0  0  0  0  0  0  0  0  0  0  0  0
   -1.0323    0.7500    0.0000 O   0  0  0  0  0  0  0  0  0  0  0  0
   -1.0323   -0.7500    0.0000 C   0  0  0  0  0  0  0  0  0  0  0  0
    0.3943   -1.2135    0.0000 N   0  0  0  0  0  0  0  0  0  0  0  0
    0.8578   -2.6401    0.0000 R   0  0  0  0  0  1  0  0  0  1  0  0
    3.5260   -1.2990    0.0000 R   0  0  0  0  0  1  0  0  0  2  0  0
  1  2  2  0
  3  2  1  1
  3  4  1  0
  4  5  1  0
  5  6  1  0
  6  7  1  0
  7  8  1  0
  2  9  1  0
  7  3  1  0
M  END
>  <id>  (381) 
858aba2c-65cb-422a-a5b1-098c87e4f360

>  <Version>  (381) 
0

>  <Alias>  (381) 
Ozldn

>  <Type>  (381) 
amino_acid

>  <Smiles>  (381) 
O=C([C@@H]1COCN1[*:1])[*:2]

>  <ProtectedSmiles>  (381) 
O=C(O)[C@@H]1COCN1C(=O)OCC1c2ccccc2-c2ccccc21

>  <CAS>  (381) 
352662-35-2

>  <User>  (381) 
angelica.l

>  <StereoComment>  (381) 
as drawn

>  <Name>  (381) 
(S)-3-Fmoc-oxazolidine-4-carboxylic acid

>  <Code>  (381) 
Ozldn

>  <AliasLowerCase>  (381) 
ozldn

>  <LatestVersion>  (381) 
0.0

>  <createdAt>  (381) 
2026-01-14T11:36:41.211Z

>  <updatedAt>  (381) 
2026-01-14T11:36:41.211Z

>  <NumRotatableBonds>  (381) 
1

>  <is_N_methyl>  (381) 
False

>  <is_a_methyl>  (381) 
False

>  <is_alpha_aa>  (381) 
True

>  <is_beta_aa>  (381) 
False

>  <is_S100_aa>  (381) 
False

>  <Murcko_SMILES>  (381) 
C1COCN1

$$$$

     RDKit          2D

 12 12  0  0  0  0  0  0  0  0999 V2000
    3.7500    1.2990    0.0000 O   0  0  0  0  0  0  0  0  0  0  0  0
    3.0000    0.0000    0.0000 C   0  0  0  0  0  0  0  0  0  0  0  0
    1.5000    0.0000    0.0000 C   0  0  0  0  0  0  0  0  0  0  0  0
    0.7500   -1.2990    0.0000 C   0  0  0  0  0  0  0  0  0  0  0  0
   -0.7500   -1.2990    0.0000 C   0  0  0  0  0  0  0  0  0  0  0  0
   -1.5000   -2.5981    0.0000 Cl  0  0  0  0  0  0  0  0  0  0  0  0
   -1.5000    0.0000    0.0000 C   0  0  0  0  0  0  0  0  0  0  0  0
   -0.7500    1.2990    0.0000 C   0  0  0  0  0  0  0  0  0  0  0  0
   -1.5000    2.5981    0.0000 N   0  0  0  0  0  0  0  0  0  0  0  0
   -0.7500    3.8971    0.0000 R   0  0  0  0  0  1  0  0  0  1  0  0
    0.7500    1.2990    0.0000 C   0  0  0  0  0  0  0  0  0  0  0  0
    3.7500   -1.2990    0.0000 R   0  0  0  0  0  1  0  0  0  2  0  0
  1  2  2  0
  2  3  1  0
  3  4  2  0
  4  5  1  0
  5  6  1  0
  5  7  2  0
  7  8  1  0
  8  9  1  0
  9 10  1  0
  8 11  2  0
  2 12  1  0
 11  3  1  0
M  END
>  <id>  (382) 
4534e7c5-1d54-4e9d-a36e-072efd707170

>  <Version>  (382) 
0

>  <Alias>  (382) 
(5Cl)-3Abz

>  <Type>  (382) 
amino_acid

>  <Smiles>  (382) 
O=C(c1cc(Cl)cc(N[*:1])c1)[*:2]

>  <ProtectedSmiles>  (382) 
O=C(Nc1cc(Cl)cc(C(=O)O)c1)OCC1c2ccccc2-c2ccccc21

>  <CAS>  (382) 
1537677-81-8

>  <User>  (382) 
gontran.s

>  <StereoComment>  (382) 
as drawn

>  <Name>  (382) 
3-chloro-5-({[(9H-fluoren-9-yl)methoxy]carbonyl}amino)benzoic acid

>  <Code>  (382) 
(5Cl)-3Abz

>  <AliasLowerCase>  (382) 
(5cl)-3abz

>  <LatestVersion>  (382) 
0.0

>  <createdAt>  (382) 
2026-01-14T11:34:43.847Z

>  <updatedAt>  (382) 
2026-01-14T11:34:43.847Z

>  <NumRotatableBonds>  (382) 
2

>  <is_N_methyl>  (382) 
False

>  <is_a_methyl>  (382) 
False

>  <is_alpha_aa>  (382) 
False

>  <is_beta_aa>  (382) 
False

>  <is_S100_aa>  (382) 
False

>  <Murcko_SMILES>  (382) 
c1ccccc1

$$$$

     RDKit          2D

 14 14  0  0  0  0  0  0  0  0999 V2000
    6.0000    0.0000    0.0000 O   0  0  0  0  0  0  0  0  0  0  0  0
    5.2500   -1.2990    0.0000 C   0  0  0  0  0  0  0  0  0  0  0  0
    3.7500   -1.2990    0.0000 C   0  0  0  0  0  0  0  0  0  0  0  0
    3.0000    0.0000    0.0000 C   0  0  0  0  0  0  0  0  0  0  0  0
    1.5000    0.0000    0.0000 C   0  0  0  0  0  0  0  0  0  0  0  0
    0.7500   -1.2990    0.0000 C   0  0  0  0  0  0  0  0  0  0  0  0
   -0.7500   -1.2990    0.0000 C   0  0  0  0  0  0  0  0  0  0  0  0
   -1.5000    0.0000    0.0000 C   0  0  0  0  0  0  0  0  0  0  0  0
   -0.7500    1.2990    0.0000 C   0  0  0  0  0  0  0  0  0  0  0  0
   -1.5000    2.5981    0.0000 Cl  0  0  0  0  0  0  0  0  0  0  0  0
    0.7500    1.2990    0.0000 C   0  0  0  0  0  0  0  0  0  0  0  0
    3.0000   -2.5981    0.0000 N   0  0  0  0  0  0  0  0  0  0  0  0
    3.7500   -3.8971    0.0000 R   0  0  0  0  0  1  0  0  0  1  0  0
    6.0000   -2.5981    0.0000 R   0  0  0  0  0  1  0  0  0  2  0  0
  1  2  2  0
  2  3  1  0
  3  4  1  6
  4  5  1  0
  5  6  2  0
  6  7  1  0
  7  8  2  0
  8  9  1  0
  9 10  1  0
  9 11  2  0
  3 12  1  0
 12 13  1  0
  2 14  1  0
 11  5  1  0
M  END
>  <id>  (383) 
06bff60b-614d-4bba-aa57-923bd0f7d08b

>  <Version>  (383) 
0

>  <Alias>  (383) 
D-3ClPhe

>  <Type>  (383) 
amino_acid

>  <Smiles>  (383) 
O=C([C@@H](Cc1cccc(Cl)c1)N[*:1])[*:2]

>  <ProtectedSmiles>  (383) 
O=C(N[C@H](Cc1cccc(Cl)c1)C(=O)O)OCC1c2ccccc2-c2ccccc21

>  <CAS>  (383) 
205526-23-4

>  <User>  (383) 
mischa.s

>  <StereoComment>  (383) 
as drawn

>  <Name>  (383) 
Fmoc-3-chloro-D-phenylalanine

>  <Code>  (383) 
D-3ClPhe

>  <AliasLowerCase>  (383) 
d-3clphe

>  <LatestVersion>  (383) 
0.0

>  <createdAt>  (383) 
2026-01-14T11:36:50.808Z

>  <updatedAt>  (383) 
2026-01-14T11:36:50.808Z

>  <NumRotatableBonds>  (383) 
4

>  <is_N_methyl>  (383) 
False

>  <is_a_methyl>  (383) 
False

>  <is_alpha_aa>  (383) 
True

>  <is_beta_aa>  (383) 
False

>  <is_S100_aa>  (383) 
False

>  <Murcko_SMILES>  (383) 
c1ccccc1

$$$$

     RDKit          2D

 14 14  0  0  0  0  0  0  0  0999 V2000
    6.0000    0.0000    0.0000 O   0  0  0  0  0  0  0  0  0  0  0  0
    5.2500   -1.2990    0.0000 C   0  0  0  0  0  0  0  0  0  0  0  0
    3.7500   -1.2990    0.0000 C   0  0  0  0  0  0  0  0  0  0  0  0
    3.0000    0.0000    0.0000 C   0  0  0  0  0  0  0  0  0  0  0  0
    3.7500    1.2990    0.0000 C   0  0  0  0  0  0  0  0  0  0  0  0
    5.2500    1.2990    0.0000 N   0  0  0  0  0  0  0  0  0  0  0  0
    6.0000    2.5981    0.0000 R   0  0  0  0  0  1  0  0  0  1  0  0
    1.5000    0.0000    0.0000 C   0  0  0  0  0  0  0  0  0  0  0  0
    0.7500   -1.2990    0.0000 C   0  0  0  0  0  0  0  0  0  0  0  0
   -0.7500   -1.2990    0.0000 C   0  0  0  0  0  0  0  0  0  0  0  0
   -1.5000    0.0000    0.0000 C   0  0  0  0  0  0  0  0  0  0  0  0
   -0.7500    1.2990    0.0000 C   0  0  0  0  0  0  0  0  0  0  0  0
    0.7500    1.2990    0.0000 C   0  0  0  0  0  0  0  0  0  0  0  0
    6.0000   -2.5981    0.0000 R   0  0  0  0  0  1  0  0  0  2  0  0
  1  2  2  0
  2  3  1  0
  3  4  1  0
  4  5  1  0
  5  6  1  0
  6  7  1  0
  4  8  1  0
  8  9  1  0
  9 10  1  0
 10 11  1  0
 11 12  1  0
 12 13  1  0
  2 14  1  0
 13  8  1  0
M  END
>  <id>  (384) 
7f049532-6290-4732-b934-46ea8dbbfe8a

>  <Version>  (384) 
0

>  <Alias>  (384) 
CHBuAla

>  <Type>  (384) 
amino_acid

>  <Smiles>  (384) 
O=C(CC(CN[*:1])C1CCCCC1)[*:2]

>  <ProtectedSmiles>  (384) 
O=C(O)CC(CNC(=O)OCC1c2ccccc2-c2ccccc21)C1CCCCC1

>  <CAS>  (384) 
282525-06-8

>  <User>  (384) 
Sevan.habeshian@orbismedicines.com

>  <StereoComment>  (384) 
as drawn

>  <Name>  (384) 
N/A

>  <Code>  (384) 
CHBuAla

>  <AliasLowerCase>  (384) 
chbuala

>  <LatestVersion>  (384) 
0.0

>  <createdAt>  (384) 
2026-02-13T09:56:35.511Z

>  <updatedAt>  (384) 
2026-02-13T09:56:35.511Z

>  <NumRotatableBonds>  (384) 
5

>  <is_N_methyl>  (384) 
False

>  <is_a_methyl>  (384) 
False

>  <is_alpha_aa>  (384) 
False

>  <is_beta_aa>  (384) 
False

>  <is_S100_aa>  (384) 
False

>  <Murcko_SMILES>  (384) 
C1CCCCC1

$$$$

     RDKit          2D

 10 10  0  0  0  0  0  0  0  0999 V2000
    3.5260    1.2990    0.0000 O   0  0  0  0  0  0  0  0  0  0  0  0
    2.7760    0.0000    0.0000 C   0  0  0  0  0  0  0  0  0  0  0  0
    1.2760    0.0000    0.0000 C   0  0  0  0  0  0  0  0  0  0  0  0
    0.3943    1.2135    0.0000 C   0  0  0  0  0  0  0  0  0  0  0  0
   -1.0323    0.7500    0.0000 C   0  0  0  0  0  0  0  0  0  0  0  0
   -2.2458    1.6317    0.0000 F   0  0  0  0  0  0  0  0  0  0  0  0
   -1.0323   -0.7500    0.0000 C   0  0  0  0  0  0  0  0  0  0  0  0
    0.3943   -1.2135    0.0000 N   0  0  0  0  0  0  0  0  0  0  0  0
    0.8578   -2.6401    0.0000 R   0  0  0  0  0  1  0  0  0  1  0  0
    3.5260   -1.2990    0.0000 R   0  0  0  0  0  1  0  0  0  2  0  0
  1  2  2  0
  3  2  1  1
  3  4  1  0
  4  5  1  0
  5  6  1  1
  5  7  1  0
  7  8  1  0
  8  9  1  0
  2 10  1  0
  8  3  1  0
M  END
>  <id>  (385) 
7b2237fa-8954-49d8-a67a-c76b70d69ce0

>  <Version>  (385) 
0

>  <Alias>  (385) 
Pro(4S-F)

>  <Type>  (385) 
amino_acid

>  <Smiles>  (385) 
O=C([C@@H]1C[C@H](F)CN1[*:1])[*:2]

>  <ProtectedSmiles>  (385) 
O=C(O)[C@@H]1C[C@H](F)CN1C(=O)OCC1c2ccccc2-c2ccccc21

>  <CAS>  (385) 
203866-19-7

>  <User>  (385) 
mischa.s

>  <StereoComment>  (385) 
as drawn

>  <Name>  (385) 
(2S,4S)-Fmoc-4-fluoro-pyrrolidine-2-carboxylic acid

>  <Code>  (385) 
Pro(4S-F)

>  <AliasLowerCase>  (385) 
pro(4s-f)

>  <LatestVersion>  (385) 
0.0

>  <createdAt>  (385) 
2026-01-14T11:36:34.591Z

>  <updatedAt>  (385) 
2026-01-14T11:36:34.591Z

>  <NumRotatableBonds>  (385) 
1

>  <is_N_methyl>  (385) 
False

>  <is_a_methyl>  (385) 
False

>  <is_alpha_aa>  (385) 
True

>  <is_beta_aa>  (385) 
False

>  <is_S100_aa>  (385) 
False

>  <Murcko_SMILES>  (385) 
C1CCNC1

$$$$

     RDKit          2D

 12 12  0  0  0  0  0  0  0  0999 V2000
    2.7760   -2.5981    0.0000 O   0  0  0  0  0  0  0  0  0  0  0  0
    3.5260   -1.2990    0.0000 C   0  0  0  0  0  0  0  0  0  0  0  0
    2.7760    0.0000    0.0000 C   0  0  0  0  0  0  0  0  0  0  0  0
    1.2760    0.0000    0.0000 C   0  0  0  0  0  0  0  0  0  0  0  0
    0.3943    1.2135    0.0000 C   0  0  0  0  0  0  0  0  0  0  0  0
   -1.0323    0.7500    0.0000 S   0  0  0  0  0  0  0  0  0  0  0  0
   -1.0323   -0.7500    0.0000 C   0  0  0  0  0  0  0  0  0  0  0  0
   -2.2458   -1.6317    0.0000 C   0  0  0  0  0  0  0  0  0  0  0  0
   -3.6161   -1.0216    0.0000 N   0  0  0  0  0  0  0  0  0  0  0  0
   -4.8297   -1.9033    0.0000 R   0  0  0  0  0  1  0  0  0  1  0  0
    0.3943   -1.2135    0.0000 N   0  0  0  0  0  0  0  0  0  0  0  0
    5.0260   -1.2990    0.0000 R   0  0  0  0  0  1  0  0  0  2  0  0
  1  2  2  0
  2  3  1  0
  3  4  1  0
  4  5  2  0
  5  6  1  0
  6  7  1  0
  7  8  1  0
  8  9  1  0
  9 10  1  0
  7 11  2  0
  2 12  1  0
 11  4  1  0
M  END
>  <id>  (386) 
7da5788a-7f6b-4d76-8217-d6b4364aa203

>  <Version>  (386) 
0

>  <Alias>  (386) 
1,3TzaAcid

>  <Type>  (386) 
amino_acid

>  <Smiles>  (386) 
O=C(Cc1csc(CN[*:1])n1)[*:2]

>  <ProtectedSmiles>  (386) 
O=C(O)Cc1csc(CNC(=O)OCC2c3ccccc3-c3ccccc32)n1

>  <CAS>  (386) 
2138189-66-7

>  <User>  (386) 
Sevan.habeshian@orbismedicines.com

>  <StereoComment>  (386) 
as drawn

>  <Name>  (386) 
N/A

>  <Code>  (386) 
1,3TzaAcid

>  <AliasLowerCase>  (386) 
1,3tzaacid

>  <LatestVersion>  (386) 
0.0

>  <createdAt>  (386) 
2026-02-13T09:56:35.513Z

>  <updatedAt>  (386) 
2026-02-13T09:56:35.513Z

>  <NumRotatableBonds>  (386) 
4

>  <is_N_methyl>  (386) 
False

>  <is_a_methyl>  (386) 
False

>  <is_alpha_aa>  (386) 
False

>  <is_beta_aa>  (386) 
False

>  <is_S100_aa>  (386) 
False

>  <Murcko_SMILES>  (386) 
c1cscn1

$$$$

     RDKit          2D

 14 15  0  0  0  0  0  0  0  0999 V2000
    2.7760    0.0000    0.0000 O   0  0  0  0  0  0  0  0  0  0  0  0
    1.2760    0.0000    0.0000 C   0  0  0  0  0  0  0  0  0  0  0  0
    0.3943    1.2135    0.0000 C   0  0  0  0  0  0  0  0  0  0  0  0
   -1.0323    0.7500    0.0000 C   0  0  0  0  0  0  0  0  0  0  0  0
   -2.2458    1.6317    0.0000 C   0  0  0  0  0  0  0  0  0  0  0  0
   -3.6161    1.0216    0.0000 O   0  0  0  0  0  0  0  0  0  0  0  0
   -2.0890    3.1235    0.0000 R   0  0  0  0  0  1  0  0  0  2  0  0
   -1.0323   -0.7500    0.0000 C   0  0  0  0  0  0  0  0  0  0  0  0
    0.3943   -1.2135    0.0000 N   0  0  0  0  0  0  0  0  0  0  0  0
    0.8578   -2.6401    0.0000 C   0  0  0  0  0  0  0  0  0  0  0  0
    0.1768   -3.9766    0.0000 C   0  0  0  0  0  0  0  0  0  0  0  0
    1.5133   -4.6576    0.0000 N   0  0  0  0  0  0  0  0  0  0  0  0
    1.9769   -6.0842    0.0000 R   0  0  0  0  0  1  0  0  0  1  0  0
    2.1943   -3.3211    0.0000 C   0  0  0  0  0  0  0  0  0  0  0  0
  1  2  2  0
  2  3  1  0
  3  4  1  0
  4  5  1  0
  5  6  2  0
  5  7  1  0
  4  8  1  0
  8  9  1  0
  9 10  1  0
 10 11  1  0
 11 12  1  0
 12 13  1  0
 12 14  1  0
  9  2  1  0
 14 10  1  0
M  END
>  <id>  (387) 
316f9643-32cb-4623-8a6e-95641d1e3eb8

>  <Version>  (387) 
0

>  <Alias>  (387) 
Az3PyrCA

>  <Type>  (387) 
amino_acid

>  <Smiles>  (387) 
O=C1CC(C(=O)[*:2])CN1C1CN([*:1])C1

>  <ProtectedSmiles>  (387) 
O=C(O)C1CC(=O)N(C2CN(C(=O)OCC3c4ccccc4-c4ccccc43)C2)C1

>  <CAS>  (387) 
2137769-17-4

>  <User>  (387) 
Sevan.habeshian@orbismedicines.com

>  <StereoComment>  (387) 
as drawn

>  <Name>  (387) 
N/A

>  <Code>  (387) 
Az3PyrCA

>  <AliasLowerCase>  (387) 
az3pyrca

>  <LatestVersion>  (387) 
0.0

>  <createdAt>  (387) 
2026-02-13T09:56:36.278Z

>  <updatedAt>  (387) 
2026-02-13T09:56:36.278Z

>  <NumRotatableBonds>  (387) 
2

>  <is_N_methyl>  (387) 
False

>  <is_a_methyl>  (387) 
False

>  <is_alpha_aa>  (387) 
False

>  <is_beta_aa>  (387) 
False

>  <is_S100_aa>  (387) 
False

>  <Murcko_SMILES>  (387) 
O=C1CCCN1C1CNC1

$$$$

     RDKit          2D

 10 10  0  0  0  0  0  0  0  0999 V2000
    3.5260    1.2990    0.0000 O   0  0  0  0  0  0  0  0  0  0  0  0
    2.7760    0.0000    0.0000 C   0  0  0  0  0  0  0  0  0  0  0  0
    1.2760    0.0000    0.0000 C   0  0  0  0  0  0  0  0  0  0  0  0
    0.3943    1.2135    0.0000 C   0  0  0  0  0  0  0  0  0  0  0  0
   -1.0323    0.7500    0.0000 C   0  0  0  0  0  0  0  0  0  0  0  0
   -2.2458    1.6317    0.0000 O   0  0  0  0  0  0  0  0  0  0  0  0
   -1.0323   -0.7500    0.0000 C   0  0  0  0  0  0  0  0  0  0  0  0
    0.3943   -1.2135    0.0000 N   0  0  0  0  0  0  0  0  0  0  0  0
    0.8578   -2.6401    0.0000 R   0  0  0  0  0  1  0  0  0  1  0  0
    3.5260   -1.2990    0.0000 R   0  0  0  0  0  1  0  0  0  2  0  0
  1  2  2  0
  3  2  1  6
  3  4  1  0
  4  5  1  0
  5  6  1  6
  5  7  1  0
  7  8  1  0
  8  9  1  0
  2 10  1  0
  8  3  1  0
M  END
>  <id>  (388) 
21693e56-1bfb-45d2-817b-c1d34757da1c

>  <Version>  (388) 
0

>  <Alias>  (388) 
D-Hyp

>  <Type>  (388) 
amino_acid

>  <Smiles>  (388) 
O=C([C@H]1C[C@@H](O)CN1[*:1])[*:2]

>  <ProtectedSmiles>  (388) 
CC(C)(C)O[C@@H]1C[C@H](C(=O)O)N(C(=O)OCC2c3ccccc3-c3ccccc32)C1

>  <CAS>  (388) 
1276694-30-4

>  <User>  (388) 
sevan.h

>  <StereoComment>  (388) 
as drawn

>  <Name>  (388) 
(2R,4R)-4-Boc-1-Fmoc-pyrrolidine-2-carboxylic acid

>  <Code>  (388) 
D-Hyp

>  <AliasLowerCase>  (388) 
d-hyp

>  <LatestVersion>  (388) 
0.0

>  <createdAt>  (388) 
2026-01-14T12:15:08.407Z

>  <updatedAt>  (388) 
2026-01-14T12:15:08.407Z

>  <NumRotatableBonds>  (388) 
1

>  <is_N_methyl>  (388) 
False

>  <is_a_methyl>  (388) 
False

>  <is_alpha_aa>  (388) 
True

>  <is_beta_aa>  (388) 
False

>  <is_S100_aa>  (388) 
False

>  <Murcko_SMILES>  (388) 
C1CCNC1

$$$$

     RDKit          2D

 10  9  0  0  0  0  0  0  0  0999 V2000
    4.6471   -0.5490    0.0000 C   0  0  0  0  0  0  0  0  0  0  0  0
    3.8971    0.7500    0.0000 C   0  0  0  0  0  0  0  0  0  0  0  0
    3.1471    2.0490    0.0000 C   0  0  0  0  0  0  0  0  0  0  0  0
    5.1962    1.5000    0.0000 C   0  0  0  0  0  0  0  0  0  0  0  0
    2.5981   -0.0000    0.0000 C   0  0  0  0  0  0  0  0  0  0  0  0
    1.2990    0.7500    0.0000 N   0  0  0  0  0  0  0  0  0  0  0  0
    0.0000    0.0000    0.0000 R   0  0  0  0  0  1  0  0  0  1  0  0
    2.5981   -1.5000    0.0000 C   0  0  0  0  0  0  0  0  0  0  0  0
    1.2990   -2.2500    0.0000 O   0  0  0  0  0  0  0  0  0  0  0  0
    3.8971   -2.2500    0.0000 R   0  0  0  0  0  1  0  0  0  2  0  0
  1  2  1  0
  2  3  1  0
  2  4  1  0
  2  5  1  0
  5  6  1  1
  6  7  1  0
  5  8  1  0
  8  9  2  0
  8 10  1  0
M  END
>  <id>  (389) 
3ce2594a-52bd-4132-9303-4ad10831723b

>  <Version>  (389) 
0

>  <Alias>  (389) 
Tleu

>  <Type>  (389) 
amino_acid

>  <Smiles>  (389) 
CC(C)(C)[C@H](N[*:1])C(=O)[*:2]

>  <ProtectedSmiles>  (389) 
CC(C)(C)[C@H](NC(=O)OCC1c2ccccc2-c2ccccc21)C(=O)O

>  <CAS>  (389) 
132684-60-7

>  <User>  (389) 
sevan.h

>  <StereoComment>  (389) 
as drawn

>  <Name>  (389) 
Fmoc-Tle-OH

>  <Code>  (389) 
Tleu

>  <AliasLowerCase>  (389) 
tleu

>  <LatestVersion>  (389) 
0.0

>  <createdAt>  (389) 
2026-01-14T12:15:35.202Z

>  <updatedAt>  (389) 
2026-01-14T12:15:35.202Z

>  <NumRotatableBonds>  (389) 
2

>  <is_N_methyl>  (389) 
False

>  <is_a_methyl>  (389) 
False

>  <is_alpha_aa>  (389) 
True

>  <is_beta_aa>  (389) 
False

>  <is_S100_aa>  (389) 
False

>  <Murcko_SMILES>  (389) 


$$$$

     RDKit          2D

 10 11  0  0  0  0  0  0  0  0999 V2000
   -3.7903    2.9520    0.0000 O   0  0  0  0  0  0  0  0  0  0  0  0
   -2.3231    2.6401    0.0000 C   0  0  0  0  0  0  0  0  0  0  0  0
   -1.8596    1.2135    0.0000 C   0  0  0  0  0  0  0  0  0  0  0  0
   -0.4330    0.7500    0.0000 C   0  0  0  0  0  0  0  0  0  0  0  0
    0.8660    0.0000    0.0000 C   0  0  0  0  0  0  0  0  0  0  0  0
   -0.4330   -0.7500    0.0000 C   0  0  0  0  0  0  0  0  0  0  0  0
   -1.8596   -1.2135    0.0000 C   0  0  0  0  0  0  0  0  0  0  0  0
   -2.7413    0.0000    0.0000 N   0  0  0  0  0  0  0  0  0  0  0  0
   -4.2413    0.0000    0.0000 R   0  0  0  0  0  1  0  0  0  1  0  0
   -1.3194    3.7548    0.0000 R   0  0  0  0  0  1  0  0  0  2  0  0
  1  2  2  0
  3  2  1  6
  3  4  1  0
  4  5  1  1
  6  5  1  1
  6  7  1  0
  7  8  1  0
  8  9  1  0
  2 10  1  0
  8  3  1  0
  6  4  1  0
M  END
>  <id>  (390) 
856a7e41-c8d1-43ad-81e4-414a499b4b2c

>  <Version>  (390) 
0

>  <Alias>  (390) 
(1S,2S,5R)3abc[3.1.0]hex2CA

>  <Type>  (390) 
amino_acid

>  <Smiles>  (390) 
O=C([C@@H]1[C@H]2C[C@H]2CN1[*:1])[*:2]

>  <ProtectedSmiles>  (390) 
O=C(O)[C@@H]1[C@H]2C[C@H]2CN1C(=O)OCC1c2ccccc2-c2ccccc21

>  <CAS>  (390) 
854113-43-2

>  <User>  (390) 
mischa.s

>  <StereoComment>  (390) 
as drawn

>  <Name>  (390) 
(1S,2S,5R)-3-{[(9H-fluoren-9-yl)methoxy]carbonyl}-3-azabicyclo[3.1.0]hexane-2-carboxylic acid

>  <Code>  (390) 
(1S,2S,5R)3abc[3.1.0]hex2CA

>  <AliasLowerCase>  (390) 
(1s,2s,5r)3abc[3.1.0]hex2ca

>  <LatestVersion>  (390) 
0.0

>  <createdAt>  (390) 
2026-01-14T11:36:35.912Z

>  <updatedAt>  (390) 
2026-01-14T11:36:35.912Z

>  <NumRotatableBonds>  (390) 
1

>  <is_N_methyl>  (390) 
False

>  <is_a_methyl>  (390) 
False

>  <is_alpha_aa>  (390) 
True

>  <is_beta_aa>  (390) 
False

>  <is_S100_aa>  (390) 
False

>  <Murcko_SMILES>  (390) 
C1NC[C@H]2C[C@@H]12

$$$$

     RDKit          2D

 10 10  0  0  0  0  0  0  0  0999 V2000
    3.5260    1.2990    0.0000 O   0  0  0  0  0  0  0  0  0  0  0  0
    2.7760    0.0000    0.0000 C   0  0  0  0  0  0  0  0  0  0  0  0
    1.2760    0.0000    0.0000 C   0  0  0  0  0  0  0  0  0  0  0  0
    0.3943    1.2135    0.0000 C   0  0  0  0  0  0  0  0  0  0  0  0
   -1.0323    0.7500    0.0000 C   0  0  0  0  0  0  0  0  0  0  0  0
   -1.0323   -0.7500    0.0000 C   0  0  0  0  0  0  0  0  0  0  0  0
   -2.2458   -1.6317    0.0000 N   0  0  0  0  0  0  0  0  0  0  0  0
   -3.6161   -1.0216    0.0000 R   0  0  0  0  0  1  0  0  0  1  0  0
    0.3943   -1.2135    0.0000 C   0  0  0  0  0  0  0  0  0  0  0  0
    3.5260   -1.2990    0.0000 R   0  0  0  0  0  1  0  0  0  2  0  0
  1  2  2  0
  2  3  1  0
  3  4  2  0
  4  5  1  0
  5  6  1  0
  6  7  1  0
  7  8  1  0
  6  9  1  0
  2 10  1  0
  9  3  1  0
M  END
>  <id>  (391) 
e12dae0a-2649-4362-ad04-887e4ed17c21

>  <Version>  (391) 
0

>  <Alias>  (391) 
CPeneCA

>  <Type>  (391) 
amino_acid

>  <Smiles>  (391) 
O=C(C1=CCC(N[*:1])C1)[*:2]

>  <ProtectedSmiles>  (391) 
O=C(NC1CC=C(C(=O)O)C1)OCC1c2ccccc2-c2ccccc21

>  <CAS>  (391) 
2138342-32-0

>  <User>  (391) 
Sevan.habeshian@orbismedicines.com

>  <StereoComment>  (391) 
as drawn

>  <Name>  (391) 
N/A

>  <Code>  (391) 
CPeneCA

>  <AliasLowerCase>  (391) 
cpeneca

>  <LatestVersion>  (391) 
0.0

>  <createdAt>  (391) 
2026-02-13T09:56:36.320Z

>  <updatedAt>  (391) 
2026-02-13T09:56:36.320Z

>  <NumRotatableBonds>  (391) 
2

>  <is_N_methyl>  (391) 
False

>  <is_a_methyl>  (391) 
False

>  <is_alpha_aa>  (391) 
False

>  <is_beta_aa>  (391) 
False

>  <is_S100_aa>  (391) 
False

>  <Murcko_SMILES>  (391) 
C1=CCCC1

$$$$

     RDKit          2D

 14 15  0  0  0  0  0  0  0  0999 V2000
    2.3113   -6.0465    0.0000 O   0  0  0  0  0  0  0  0  0  0  0  0
    1.0978   -5.1648    0.0000 C   0  0  0  0  0  0  0  0  0  0  0  0
    1.2546   -3.6731    0.0000 C   0  0  0  0  0  0  0  0  0  0  0  0
    2.5537   -2.9231    0.0000 N   0  0  0  0  0  0  0  0  0  0  0  0
    2.2418   -1.4558    0.0000 O   0  0  0  0  0  0  0  0  0  0  0  0
    0.7500   -1.2990    0.0000 C   0  0  0  0  0  0  0  0  0  0  0  0
    1.5000    0.0000    0.0000 C   0  0  0  0  0  0  0  0  0  0  0  0
    0.7500    1.2990    0.0000 C   0  0  0  0  0  0  0  0  0  0  0  0
   -0.7500    1.2990    0.0000 N   0  0  0  0  0  0  0  0  0  0  0  0
   -1.5000    2.5981    0.0000 R   0  0  0  0  0  1  0  0  0  1  0  0
   -1.5000    0.0000    0.0000 C   0  0  0  0  0  0  0  0  0  0  0  0
   -0.7500   -1.2990    0.0000 C   0  0  0  0  0  0  0  0  0  0  0  0
    0.1399   -2.6694    0.0000 C   0  0  0  0  0  0  0  0  0  0  0  0
   -0.2725   -5.7749    0.0000 R   0  0  0  0  0  1  0  0  0  2  0  0
  1  2  2  0
  2  3  1  0
  3  4  2  0
  4  5  1  0
  5  6  1  0
  6  7  1  0
  7  8  1  0
  8  9  1  0
  9 10  1  0
  9 11  1  0
 11 12  1  0
  6 13  1  0
  2 14  1  0
 13  3  1  0
 12  6  1  0
M  END
>  <id>  (392) 
085ebe6e-1923-43c4-928c-90e39e4e7830

>  <Version>  (392) 
0

>  <Alias>  (392) 
2,8-DASpiroDecCA

>  <Type>  (392) 
amino_acid

>  <Smiles>  (392) 
O=C(C1=NOC2(CCN([*:1])CC2)C1)[*:2]

>  <ProtectedSmiles>  (392) 
O=C(O)C1=NOC2(CCN(C(=O)OCC3c4ccccc4-c4ccccc43)CC2)C1

>  <CAS>  (392) 
1803562-58-4

>  <User>  (392) 
Sevan.habeshian@orbismedicines.com

>  <StereoComment>  (392) 
as drawn

>  <Name>  (392) 
N/A

>  <Code>  (392) 
2,8-DASpiroDecCA

>  <AliasLowerCase>  (392) 
2,8-daspirodecca

>  <LatestVersion>  (392) 
0.0

>  <createdAt>  (392) 
2026-02-13T09:56:35.484Z

>  <updatedAt>  (392) 
2026-02-13T09:56:35.484Z

>  <NumRotatableBonds>  (392) 
1

>  <is_N_methyl>  (392) 
False

>  <is_a_methyl>  (392) 
False

>  <is_alpha_aa>  (392) 
False

>  <is_beta_aa>  (392) 
False

>  <is_S100_aa>  (392) 
False

>  <Murcko_SMILES>  (392) 
C1=NOC2(C1)CCNCC2

$$$$

     RDKit          2D

 11 11  0  0  0  0  0  0  0  0999 V2000
    3.5260   -1.2990    0.0000 O   0  0  0  0  0  0  0  0  0  0  0  0
    2.7760    0.0000    0.0000 C   0  0  0  0  0  0  0  0  0  0  0  0
    1.2760    0.0000    0.0000 C   0  0  0  0  0  0  0  0  0  0  0  0
    0.3943    1.2135    0.0000 O   0  0  0  0  0  0  0  0  0  0  0  0
   -1.0323    0.7500    0.0000 C   0  0  0  0  0  0  0  0  0  0  0  0
   -1.0323   -0.7500    0.0000 C   0  0  0  0  0  0  0  0  0  0  0  0
    0.3943   -1.2135    0.0000 C   0  0  0  0  0  0  0  0  0  0  0  0
    0.8578   -2.6401    0.0000 C   0  0  0  0  0  0  0  0  0  0  0  0
   -0.1459   -3.7548    0.0000 N   0  0  0  0  0  0  0  0  0  0  0  0
    0.3177   -5.1814    0.0000 R   0  0  0  0  0  1  0  0  0  1  0  0
    3.5260    1.2990    0.0000 R   0  0  0  0  0  1  0  0  0  2  0  0
  1  2  2  0
  3  2  1  1
  3  4  1  0
  4  5  1  0
  5  6  1  0
  6  7  1  0
  7  8  1  1
  8  9  1  0
  9 10  1  0
  2 11  1  0
  7  3  1  0
M  END
>  <id>  (393) 
23cc27b4-5d29-406e-be10-d01f66ccef37

>  <Version>  (393) 
0

>  <Alias>  (393) 
(2R,3R)OxolMethyCA

>  <Type>  (393) 
amino_acid

>  <Smiles>  (393) 
O=C([C@@H]1OCC[C@@H]1CN[*:1])[*:2]

>  <ProtectedSmiles>  (393) 
O=C(NC[C@H]1CCO[C@H]1C(=O)O)OCC1c2ccccc2-c2ccccc21

>  <CAS>  (393) 
2138005-31-7

>  <User>  (393) 
Sevan.habeshian@orbismedicines.com

>  <StereoComment>  (393) 
rac-cis

>  <Name>  (393) 
N/A

>  <Code>  (393) 
(2R,3R)OxolMethyCA

>  <AliasLowerCase>  (393) 
(2r,3r)oxolmethyca

>  <LatestVersion>  (393) 
0.0

>  <createdAt>  (393) 
2026-02-13T09:56:35.502Z

>  <updatedAt>  (393) 
2026-02-13T09:56:35.502Z

>  <NumRotatableBonds>  (393) 
3

>  <is_N_methyl>  (393) 
False

>  <is_a_methyl>  (393) 
False

>  <is_alpha_aa>  (393) 
False

>  <is_beta_aa>  (393) 
False

>  <is_S100_aa>  (393) 
False

>  <Murcko_SMILES>  (393) 
C1CCOC1

$$$$

     RDKit          2D

 11 10  0  0  0  0  0  0  0  0999 V2000
    7.7942   -0.0000    0.0000 C   0  0  0  0  0  0  0  0  0  0  0  0
    6.4952    0.7500    0.0000 C   0  0  0  0  0  0  0  0  0  0  0  0
    6.4952    2.2500    0.0000 C   0  0  0  0  0  0  0  0  0  0  0  0
    5.1962   -0.0000    0.0000 C   0  0  0  0  0  0  0  0  0  0  0  0
    3.8971    0.7500    0.0000 C   0  0  0  0  0  0  0  0  0  0  0  0
    2.5981   -0.0000    0.0000 C   0  0  0  0  0  0  0  0  0  0  0  0
    1.2990    0.7500    0.0000 N   0  0  0  0  0  0  0  0  0  0  0  0
    0.0000    0.0000    0.0000 R   0  0  0  0  0  1  0  0  0  1  0  0
    3.8971    2.2500    0.0000 C   0  0  0  0  0  0  0  0  0  0  0  0
    2.5981    3.0000    0.0000 O   0  0  0  0  0  0  0  0  0  0  0  0
    5.1962    3.0000    0.0000 R   0  0  0  0  0  1  0  0  0  2  0  0
  1  2  1  0
  2  3  1  0
  2  4  1  0
  5  4  1  1
  5  6  1  0
  6  7  1  0
  7  8  1  0
  5  9  1  0
  9 10  2  0
  9 11  1  0
M  END
>  <id>  (394) 
bd394663-116e-41e8-ad6d-0a58656d1a4a

>  <Version>  (394) 
0

>  <Alias>  (394) 
B2-hLeu

>  <Type>  (394) 
amino_acid

>  <Smiles>  (394) 
CC(C)C[C@@H](CN[*:1])C(=O)[*:2]

>  <ProtectedSmiles>  (394) 
CC(C)C[C@@H](CNC(=O)OCC1c2ccccc2-c2ccccc21)C(=O)O

>  <CAS>  (394) 
193887-45-5

>  <User>  (394) 
alice.granger@orbismedicines.com

>  <StereoComment>  (394) 
as drawn

>  <Name>  (394) 
Pentanoic acid,2-[[[(9H-fluoren-9-ylmethoxy)carbonyl]amino]methyl]-4-methyl-

>  <Code>  (394) 
B2-hLeu

>  <AliasLowerCase>  (394) 
b2-hleu

>  <LatestVersion>  (394) 
0.0

>  <createdAt>  (394) 
2026-03-11T10:37:04.476Z

>  <updatedAt>  (394) 
2026-03-11T10:37:04.476Z

>  <NumRotatableBonds>  (394) 
5

>  <is_N_methyl>  (394) 
False

>  <is_a_methyl>  (394) 
False

>  <is_alpha_aa>  (394) 
False

>  <is_beta_aa>  (394) 
True

>  <is_S100_aa>  (394) 
False

>  <Murcko_SMILES>  (394) 


$$$$

     RDKit          2D

 12 12  0  0  0  0  0  0  0  0999 V2000
    3.7500    1.2990    0.0000 O   0  0  0  0  0  0  0  0  0  0  0  0
    3.0000    0.0000    0.0000 C   0  0  0  0  0  0  0  0  0  0  0  0
    1.5000    0.0000    0.0000 C   0  0  0  0  0  0  0  0  0  0  0  0
    0.7500   -1.2990    0.0000 C   0  0  0  0  0  0  0  0  0  0  0  0
   -0.7500   -1.2990    0.0000 C   0  0  0  0  0  0  0  0  0  0  0  0
   -1.5000    0.0000    0.0000 C   0  0  0  0  0  0  0  0  0  0  0  0
   -3.0000    0.0000    0.0000 C   0  0  0  0  0  0  0  0  0  0  0  0
   -3.7500    1.2990    0.0000 N   0  0  0  0  0  0  0  0  0  0  0  0
   -5.2500    1.2990    0.0000 R   0  0  0  0  0  1  0  0  0  1  0  0
   -0.7500    1.2990    0.0000 C   0  0  0  0  0  0  0  0  0  0  0  0
    0.7500    1.2990    0.0000 C   0  0  0  0  0  0  0  0  0  0  0  0
    3.7500   -1.2990    0.0000 R   0  0  0  0  0  1  0  0  0  2  0  0
  1  2  2  0
  2  3  1  0
  3  4  2  0
  4  5  1  0
  5  6  2  0
  6  7  1  0
  7  8  1  0
  8  9  1  0
  6 10  1  0
 10 11  2  0
  2 12  1  0
 11  3  1  0
M  END
>  <id>  (395) 
945dfbf3-1f72-4285-a528-51352e0a91dd

>  <Version>  (395) 
0

>  <Alias>  (395) 
4AMBA

>  <Type>  (395) 
amino_acid

>  <Smiles>  (395) 
O=C(c1ccc(CN[*:1])cc1)[*:2]

>  <ProtectedSmiles>  (395) 
O=C(NCc1ccc(C(=O)O)cc1)OCC1c2ccccc2-c2ccccc21

>  <CAS>  (395) 
164470-64-8

>  <User>  (395) 
sevan.h

>  <StereoComment>  (395) 
as drawn

>  <Name>  (395) 
4-(Fmoc-aminomethyl)benzoic acid

>  <Code>  (395) 
4AMBA

>  <AliasLowerCase>  (395) 
4amba

>  <LatestVersion>  (395) 
0.0

>  <createdAt>  (395) 
2026-01-14T12:17:07.403Z

>  <updatedAt>  (395) 
2026-01-14T12:17:07.403Z

>  <NumRotatableBonds>  (395) 
3

>  <is_N_methyl>  (395) 
False

>  <is_a_methyl>  (395) 
False

>  <is_alpha_aa>  (395) 
False

>  <is_beta_aa>  (395) 
False

>  <is_S100_aa>  (395) 
False

>  <Murcko_SMILES>  (395) 
c1ccccc1

$$$$

     RDKit          2D

 10  9  0  0  0  0  0  0  0  0999 V2000
    6.4952    0.7500    0.0000 N   0  0  0  0  0  0  0  0  0  0  0  0
    5.1962   -0.0000    0.0000 C   0  0  0  0  0  0  0  0  0  0  0  0
    5.1962   -1.5000    0.0000 O   0  0  0  0  0  0  0  0  0  0  0  0
    3.8971    0.7500    0.0000 C   0  0  0  0  0  0  0  0  0  0  0  0
    2.5981   -0.0000    0.0000 C   0  0  0  0  0  0  0  0  0  0  0  0
    1.2990    0.7500    0.0000 N   0  0  0  0  0  0  0  0  0  0  0  0
    0.0000    0.0000    0.0000 R   0  0  0  0  0  1  0  0  0  1  0  0
    2.5981   -1.5000    0.0000 C   0  0  0  0  0  0  0  0  0  0  0  0
    1.2990   -2.2500    0.0000 O   0  0  0  0  0  0  0  0  0  0  0  0
    3.8971   -2.2500    0.0000 R   0  0  0  0  0  1  0  0  0  2  0  0
  1  2  1  0
  2  3  2  0
  2  4  1  0
  5  4  1  1
  5  6  1  0
  6  7  1  0
  5  8  1  0
  8  9  2  0
  8 10  1  0
M  END
>  <id>  (396) 
2fe37fda-e0d4-4bd1-9a55-1e19830863f8

>  <Version>  (396) 
0

>  <Alias>  (396) 
Asn_UP

>  <Type>  (396) 
amino_acid

>  <Smiles>  (396) 
NC(=O)C[C@H](N[*:1])C(=O)[*:2]

>  <ProtectedSmiles>  (396) 
NC(=O)C[C@H](NC(=O)OCC1c2ccccc2-c2ccccc21)C(=O)O

>  <CAS>  (396) 
71989-16-7

>  <User>  (396) 
Sevan.habeshian@orbismedicines.com

>  <StereoComment>  (396) 
as drawn

>  <Name>  (396) 
N/A

>  <Code>  (396) 
Asn_UP

>  <AliasLowerCase>  (396) 
asn_up

>  <LatestVersion>  (396) 
0.0

>  <createdAt>  (396) 
2026-02-13T09:56:35.492Z

>  <updatedAt>  (396) 
2026-02-13T09:56:35.492Z

>  <NumRotatableBonds>  (396) 
4

>  <is_N_methyl>  (396) 
False

>  <is_a_methyl>  (396) 
False

>  <is_alpha_aa>  (396) 
True

>  <is_beta_aa>  (396) 
False

>  <is_S100_aa>  (396) 
False

>  <Murcko_SMILES>  (396) 


$$$$

     RDKit          2D

 13 14  0  0  0  0  0  0  0  0999 V2000
    3.7548   -2.1855    0.0000 O   0  0  0  0  0  0  0  0  0  0  0  0
    2.6401   -3.1891    0.0000 C   0  0  0  0  0  0  0  0  0  0  0  0
    1.2135   -2.7256    0.0000 C   0  0  0  0  0  0  0  0  0  0  0  0
    0.7500   -1.2990    0.0000 C   0  0  0  0  0  0  0  0  0  0  0  0
    1.5000    0.0000    0.0000 C   0  0  0  0  0  0  0  0  0  0  0  0
    0.7500    1.2990    0.0000 C   0  0  0  0  0  0  0  0  0  0  0  0
   -0.7500    1.2990    0.0000 C   0  0  0  0  0  0  0  0  0  0  0  0
   -1.5000    0.0000    0.0000 C   0  0  0  0  0  0  0  0  0  0  0  0
   -0.7500   -1.2990    0.0000 C   0  0  0  0  0  0  0  0  0  0  0  0
   -1.2135   -2.7256    0.0000 C   0  0  0  0  0  0  0  0  0  0  0  0
   -0.0000   -3.6073    0.0000 N   0  0  0  0  0  0  0  0  0  0  0  0
   -0.0000   -5.1073    0.0000 R   0  0  0  0  0  1  0  0  0  1  0  0
    2.9520   -4.6564    0.0000 R   0  0  0  0  0  1  0  0  0  2  0  0
  1  2  2  0
  2  3  1  0
  3  4  1  0
  4  5  2  0
  5  6  1  0
  6  7  2  0
  7  8  1  0
  8  9  2  0
  9 10  1  0
 10 11  1  0
 11 12  1  0
  2 13  1  0
 11  3  1  0
  9  4  1  0
M  END
>  <id>  (397) 
13c9e2d1-04f8-4b8b-a864-d83cbd5cdc8e

>  <Version>  (397) 
0

>  <Alias>  (397) 
rac-1,2-DHisoInd

>  <Type>  (397) 
amino_acid

>  <Smiles>  (397) 
O=C(C1c2ccccc2CN1[*:1])[*:2]

>  <ProtectedSmiles>  (397) 
O=C(O)C1c2ccccc2CN1C(=O)OCC1c2ccccc2-c2ccccc21

>  <CAS>  (397) 
204320-59-2

>  <User>  (397) 
marie.g

>  <StereoComment>  (397) 
as drawn

>  <Name>  (397) 
2-(9H-fluoren-9-ylmethoxycarbonyl)isoindoline-1-carboxylic acid

>  <Code>  (397) 
rac-1,2-DHisoInd

>  <AliasLowerCase>  (397) 
rac-1,2-dhisoind

>  <LatestVersion>  (397) 
0.0

>  <createdAt>  (397) 
2026-01-14T11:33:47.637Z

>  <updatedAt>  (397) 
2026-01-14T11:33:47.637Z

>  <NumRotatableBonds>  (397) 
1

>  <is_N_methyl>  (397) 
False

>  <is_a_methyl>  (397) 
False

>  <is_alpha_aa>  (397) 
True

>  <is_beta_aa>  (397) 
False

>  <is_S100_aa>  (397) 
False

>  <Murcko_SMILES>  (397) 
c1ccc2c(c1)CNC2

$$$$

     RDKit          2D

 11 10  0  0  0  0  0  0  0  0999 V2000
    9.0933    0.7500    0.0000 C   0  0  0  0  0  0  0  0  0  0  0  0
    7.7942   -0.0000    0.0000 C   0  0  0  0  0  0  0  0  0  0  0  0
    6.4952    0.7500    0.0000 C   0  0  0  0  0  0  0  0  0  0  0  0
    5.1962   -0.0000    0.0000 C   0  0  0  0  0  0  0  0  0  0  0  0
    3.8971    0.7500    0.0000 C   0  0  0  0  0  0  0  0  0  0  0  0
    2.5981   -0.0000    0.0000 C   0  0  0  0  0  0  0  0  0  0  0  0
    1.2990    0.7500    0.0000 C   0  0  0  0  0  0  0  0  0  0  0  0
    1.2990    2.2500    0.0000 O   0  0  0  0  0  0  0  0  0  0  0  0
    0.0000    0.0000    0.0000 R   0  0  0  0  0  1  0  0  0  2  0  0
    3.8971    2.2500    0.0000 N   0  0  0  0  0  0  0  0  0  0  0  0
    5.1962    3.0000    0.0000 R   0  0  0  0  0  1  0  0  0  1  0  0
  1  2  1  0
  2  3  1  0
  3  4  1  0
  5  4  1  6
  5  6  1  0
  6  7  1  0
  7  8  2  0
  7  9  1  0
  5 10  1  0
 10 11  1  0
M  END
>  <id>  (398) 
c9f1c019-db63-4336-b449-277d7c9d3e16

>  <Version>  (398) 
0

>  <Alias>  (398) 
(R)-3AHepOH

>  <Type>  (398) 
amino_acid

>  <Smiles>  (398) 
CCCC[C@H](CC(=O)[*:2])N[*:1]

>  <ProtectedSmiles>  (398) 
CCCC[C@H](CC(=O)O)NC(=O)OCC1c2ccccc2-c2ccccc21

>  <CAS>  (398) 
244227-61-0

>  <User>  (398) 
angelica.l

>  <StereoComment>  (398) 
as drawn

>  <Name>  (398) 
(3R)-3-({[(9H-fluoren-9-yl)methoxy]carbonyl}amino)heptanoic acid

>  <Code>  (398) 
(R)-3AHepOH

>  <AliasLowerCase>  (398) 
(r)-3ahepoh

>  <LatestVersion>  (398) 
0.0

>  <createdAt>  (398) 
2026-01-14T11:36:10.088Z

>  <updatedAt>  (398) 
2026-01-14T11:36:10.088Z

>  <NumRotatableBonds>  (398) 
6

>  <is_N_methyl>  (398) 
False

>  <is_a_methyl>  (398) 
False

>  <is_alpha_aa>  (398) 
False

>  <is_beta_aa>  (398) 
True

>  <is_S100_aa>  (398) 
False

>  <Murcko_SMILES>  (398) 


$$$$

     RDKit          2D

  9  8  0  0  0  0  0  0  0  0999 V2000
    7.7942   -1.5000    0.0000 O   0  0  0  0  0  0  0  0  0  0  0  0
    7.7942   -0.0000    0.0000 C   0  0  0  0  0  0  0  0  0  0  0  0
    6.4952    0.7500    0.0000 C   0  0  0  0  0  0  0  0  0  0  0  0
    5.1962   -0.0000    0.0000 O   0  0  0  0  0  0  0  0  0  0  0  0
    3.8971    0.7500    0.0000 C   0  0  0  0  0  0  0  0  0  0  0  0
    2.5981   -0.0000    0.0000 C   0  0  0  0  0  0  0  0  0  0  0  0
    1.2990    0.7500    0.0000 N   0  0  0  0  0  0  0  0  0  0  0  0
    0.0000    0.0000    0.0000 R   0  0  0  0  0  1  0  0  0  1  0  0
    9.0933    0.7500    0.0000 R   0  0  0  0  0  1  0  0  0  2  0  0
  1  2  2  0
  2  3  1  0
  3  4  1  0
  4  5  1  0
  5  6  1  0
  6  7  1  0
  7  8  1  0
  2  9  1  0
M  END
>  <id>  (399) 
90940ea7-4fca-4997-bfb0-32fa824c09d4

>  <Version>  (399) 
0

>  <Alias>  (399) 
AEA

>  <Type>  (399) 
amino_acid

>  <Smiles>  (399) 
O=C(COCCN[*:1])[*:2]

>  <ProtectedSmiles>  (399) 
O=C(O)COCCNC(=O)OCC1c2ccccc2-c2ccccc21

>  <CAS>  (399) 
260367-12-2

>  <User>  (399) 
sevan.h

>  <StereoComment>  (399) 
as drawn

>  <Name>  (399) 
5-(Fmoc-amino)-3-oxapentanoic acid

>  <Code>  (399) 
AEA

>  <AliasLowerCase>  (399) 
aea

>  <LatestVersion>  (399) 
0.0

>  <createdAt>  (399) 
2026-01-14T12:16:40.418Z

>  <updatedAt>  (399) 
2026-01-14T12:16:40.418Z

>  <NumRotatableBonds>  (399) 
5

>  <is_N_methyl>  (399) 
False

>  <is_a_methyl>  (399) 
False

>  <is_alpha_aa>  (399) 
False

>  <is_beta_aa>  (399) 
False

>  <is_S100_aa>  (399) 
False

>  <Murcko_SMILES>  (399) 


$$$$

     RDKit          2D

 13 13  0  0  0  0  0  0  0  0999 V2000
    5.7760    0.0000    0.0000 O   0  0  0  0  0  0  0  0  0  0  0  0
    5.0260   -1.2990    0.0000 C   0  0  0  0  0  0  0  0  0  0  0  0
    3.5260   -1.2990    0.0000 C   0  0  0  0  0  0  0  0  0  0  0  0
    2.7760    0.0000    0.0000 C   0  0  0  0  0  0  0  0  0  0  0  0
    1.2760    0.0000    0.0000 C   0  0  0  0  0  0  0  0  0  0  0  0
    0.3943    1.2135    0.0000 C   0  0  0  0  0  0  0  0  0  0  0  0
   -1.0323    0.7500    0.0000 C   0  0  0  0  0  0  0  0  0  0  0  0
   -1.0323   -0.7500    0.0000 C   0  0  0  0  0  0  0  0  0  0  0  0
   -2.2458   -1.6317    0.0000 Cl  0  0  0  0  0  0  0  0  0  0  0  0
    0.3943   -1.2135    0.0000 S   0  0  0  0  0  0  0  0  0  0  0  0
    2.7760   -2.5981    0.0000 N   0  0  0  0  0  0  0  0  0  0  0  0
    3.5260   -3.8971    0.0000 R   0  0  0  0  0  1  0  0  0  1  0  0
    5.7760   -2.5981    0.0000 R   0  0  0  0  0  1  0  0  0  2  0  0
  1  2  2  0
  2  3  1  0
  3  4  1  1
  4  5  1  0
  5  6  2  0
  6  7  1  0
  7  8  2  0
  8  9  1  0
  8 10  1  0
  3 11  1  0
 11 12  1  0
  2 13  1  0
 10  5  1  0
M  END
>  <id>  (400) 
6a9c8105-6054-44e4-ab2e-5650e8214548

>  <Version>  (400) 
0

>  <Alias>  (400) 
5ClThphn

>  <Type>  (400) 
amino_acid

>  <Smiles>  (400) 
O=C([C@H](Cc1ccc(Cl)s1)N[*:1])[*:2]

>  <ProtectedSmiles>  (400) 
O=C(N[C@@H](Cc1ccc(Cl)s1)C(=O)O)OCC1c2ccccc2-c2ccccc21

>  <CAS>  (400) 
1997405-70-5

>  <User>  (400) 
angelica.l

>  <StereoComment>  (400) 
as drawn

>  <Name>  (400) 
Fmoc-3-(5-chlorothiophen-2-yl)-L-alanine

>  <Code>  (400) 
5ClThphn

>  <AliasLowerCase>  (400) 
5clthphn

>  <LatestVersion>  (400) 
0.0

>  <createdAt>  (400) 
2026-01-14T11:34:05.357Z

>  <updatedAt>  (400) 
2026-01-14T11:34:05.357Z

>  <NumRotatableBonds>  (400) 
4

>  <is_N_methyl>  (400) 
False

>  <is_a_methyl>  (400) 
False

>  <is_alpha_aa>  (400) 
True

>  <is_beta_aa>  (400) 
False

>  <is_S100_aa>  (400) 
False

>  <Murcko_SMILES>  (400) 
c1ccsc1

$$$$

     RDKit          2D

  0  0  0  0  0  0  0  0  0  0999 V3000
M  V30 BEGIN CTAB
M  V30 COUNTS 17 18 0 0 0
M  V30 BEGIN ATOM
M  V30 1 O 2.132751 3.144272 0.000000 0
M  V30 2 C 2.444618 4.611494 0.000000 0
M  V30 3 C 1.329901 5.615190 0.000000 0
M  V30 4 C 1.641768 7.082411 0.000000 0
M  V30 5 N 3.068353 7.545937 0.000000 0
M  V30 6 "NOT [H]" 3.380221 9.013158 0.000000 1
M  V30 7 C -0.096684 5.151664 0.000000 0
M  V30 8 C -0.408551 3.684443 0.000000 0
M  V30 9 C -1.835136 3.220917 0.000000 0
M  V30 10 C -2.147004 1.753696 0.000000 0
M  V30 11 C -1.032286 0.750000 0.000000 0
M  V30 12 C 0.394298 1.213525 0.000000 0
M  V30 13 C 0.706166 2.680747 0.000000 0
M  V30 14 O 1.275976 0.000000 0.000000 0
M  V30 15 C 0.394298 -1.213525 0.000000 0
M  V30 16 O -1.032286 -0.750000 0.000000 0
M  V30 17 "NOT [H]" 3.871203 5.075019 0.000000 2
M  V30 END ATOM
M  V30 BEGIN BOND
M  V30 1 2 1 2
M  V30 2 1 2 3
M  V30 3 1 3 4 CFG=3
M  V30 4 1 4 5
M  V30 5 1 5 6
M  V30 6 1 3 7
M  V30 7 1 7 8
M  V30 8 2 8 9
M  V30 9 1 9 10
M  V30 10 2 10 11
M  V30 11 1 11 12
M  V30 12 2 12 13
M  V30 13 1 12 14
M  V30 14 1 14 15
M  V30 15 1 15 16
M  V30 16 1 2 17
M  V30 17 1 13 8
M  V30 18 1 16 11
M  V30 END BOND
M  V30 BEGIN COLLECTION
M  V30 MDLV30/STEREL1 ATOMS=(1 3)
M  V30 END COLLECTION
M  V30 END CTAB
M  END
>  <id>  (401) 
34259aa8-584a-43e0-a2b2-dba62f0d5f5c

>  <Version>  (401) 
0

>  <Alias>  (401) 
3-(1,3Dod-5yl)2APA_2

>  <Type>  (401) 
amino_acid

>  <Smiles>  (401) 
O=C([C@@H](CN[*:1])Cc1ccc2c(c1)OCO2)[*:2] |o1:2|

>  <ProtectedSmiles>  (401) 
O=C(NC[C@@H](Cc1ccc2c(c1)OCO2)C(=O)O)OCC1c2ccccc2-c2ccccc21 |o1:4|

>  <CAS>  (401) 


>  <User>  (401) 
mischa.s

>  <StereoComment>  (401) 
Isomer 2

>  <Name>  (401) 
rel-(2R)-2-(1,3-benzodioxol-5-ylmethyl)-3-(9H-fluoren-9-ylmethoxycarbonylamino)propanoic acid

>  <Code>  (401) 
3-(1,3Dod-5yl)2APA_2

>  <AliasLowerCase>  (401) 
3-(1,3dod-5yl)2apa_2

>  <LatestVersion>  (401) 
0.0

>  <createdAt>  (401) 
2026-01-14T11:32:29.612Z

>  <updatedAt>  (401) 
2026-01-14T11:32:29.612Z

>  <NumRotatableBonds>  (401) 
5

>  <is_N_methyl>  (401) 
False

>  <is_a_methyl>  (401) 
False

>  <is_alpha_aa>  (401) 
False

>  <is_beta_aa>  (401) 
True

>  <is_S100_aa>  (401) 
False

>  <Murcko_SMILES>  (401) 
c1ccc2c(c1)OCO2

$$$$

     RDKit          2D

 16 17  0  0  0  0  0  0  0  0999 V2000
    2.3886   -0.1567    0.0000 O   0  0  0  0  0  0  0  0  0  0  0  0
    2.6491   -1.6339    0.0000 C   0  0  0  0  0  0  0  0  0  0  0  0
    1.5000   -2.5981    0.0000 C   0  0  0  0  0  0  0  0  0  0  0  0
    0.7500   -1.2990    0.0000 C   0  0  0  0  0  0  0  0  0  0  0  0
    1.5000    0.0000    0.0000 C   0  0  0  0  0  0  0  0  0  0  0  0
    0.7500    1.2990    0.0000 C   0  0  0  0  0  0  0  0  0  0  0  0
   -0.7500    1.2990    0.0000 C   0  0  0  0  0  0  0  0  0  0  0  0
   -1.5000    0.0000    0.0000 C   0  0  0  0  0  0  0  0  0  0  0  0
   -0.7500   -1.2990    0.0000 C   0  0  0  0  0  0  0  0  0  0  0  0
    0.0905   -3.1111    0.0000 C   0  0  0  0  0  0  0  0  0  0  0  0
   -0.1700   -4.5883    0.0000 C   0  0  0  0  0  0  0  0  0  0  0  0
    0.9791   -5.5525    0.0000 N   0  0  0  0  0  0  0  0  0  0  0  0
    0.7186   -7.0297    0.0000 R   0  0  0  0  0  1  0  0  0  1  0  0
    2.3886   -5.0395    0.0000 C   0  0  0  0  0  0  0  0  0  0  0  0
    2.6491   -3.5623    0.0000 C   0  0  0  0  0  0  0  0  0  0  0  0
    4.0586   -2.1469    0.0000 R   0  0  0  0  0  1  0  0  0  2  0  0
  1  2  2  0
  2  3  1  0
  3  4  1  0
  4  5  2  0
  5  6  1  0
  6  7  2  0
  7  8  1  0
  8  9  2  0
  3 10  1  0
 10 11  1  0
 11 12  1  0
 12 13  1  0
 12 14  1  0
 14 15  1  0
  2 16  1  0
 15  3  1  0
  9  4  1  0
M  END
>  <id>  (402) 
6588889d-8b8d-4937-89fb-e9774e18a689

>  <Version>  (402) 
0

>  <Alias>  (402) 
1PhInip

>  <Type>  (402) 
amino_acid

>  <Smiles>  (402) 
O=C(C1(c2ccccc2)CCN([*:1])CC1)[*:2]

>  <ProtectedSmiles>  (402) 
O=C(OCC1c2ccccc2-c2ccccc21)N1CCC(C(=O)O)(c2ccccc2)CC1

>  <CAS>  (402) 
215190-19-5

>  <User>  (402) 
sevan.h

>  <StereoComment>  (402) 
as drawn

>  <Name>  (402) 
1-{[(9H-fluoren-9-yl)methoxy]carbonyl}-4-phenylpiperidine-4-carboxylic acid

>  <Code>  (402) 
1PhInip

>  <AliasLowerCase>  (402) 
1phinip

>  <LatestVersion>  (402) 
0.0

>  <createdAt>  (402) 
2026-01-14T11:38:09.246Z

>  <updatedAt>  (402) 
2026-01-14T11:38:09.246Z

>  <NumRotatableBonds>  (402) 
2

>  <is_N_methyl>  (402) 
False

>  <is_a_methyl>  (402) 
False

>  <is_alpha_aa>  (402) 
False

>  <is_beta_aa>  (402) 
False

>  <is_S100_aa>  (402) 
False

>  <Murcko_SMILES>  (402) 
c1ccc(C2CCNCC2)cc1

$$$$

     RDKit          2D

 13 14  0  0  0  0  0  0  0  0999 V2000
    3.7500    1.2990    0.0000 O   0  0  0  0  0  0  0  0  0  0  0  0
    3.0000    0.0000    0.0000 C   0  0  0  0  0  0  0  0  0  0  0  0
    1.5000    0.0000    0.0000 C   0  0  0  0  0  0  0  0  0  0  0  0
    0.7500   -1.2990    0.0000 C   0  0  0  0  0  0  0  0  0  0  0  0
   -0.7500   -1.2990    0.0000 C   0  0  0  0  0  0  0  0  0  0  0  0
   -1.5000    0.0000    0.0000 C   0  0  0  0  0  0  0  0  0  0  0  0
   -0.7500    1.2990    0.0000 C   0  0  0  0  0  0  0  0  0  0  0  0
    0.7500    1.2990    0.0000 C   0  0  0  0  0  0  0  0  0  0  0  0
   -1.7537    2.4138    0.0000 C   0  0  0  0  0  0  0  0  0  0  0  0
   -3.1240    1.8037    0.0000 N   0  0  0  0  0  0  0  0  0  0  0  0
   -4.4231    2.5537    0.0000 R   0  0  0  0  0  1  0  0  0  1  0  0
   -2.9672    0.3119    0.0000 C   0  0  0  0  0  0  0  0  0  0  0  0
    3.7500   -1.2990    0.0000 R   0  0  0  0  0  1  0  0  0  2  0  0
  1  2  2  0
  2  3  1  0
  3  4  2  0
  4  5  1  0
  5  6  2  0
  6  7  1  0
  7  8  2  0
  7  9  1  0
  9 10  1  0
 10 11  1  0
 10 12  1  0
  2 13  1  0
  8  3  1  0
 12  6  1  0
M  END
>  <id>  (403) 
a67298dc-84ef-4531-a7fa-2922513bfe4f

>  <Version>  (403) 
0

>  <Alias>  (403) 
1,5-DHisoInd

>  <Type>  (403) 
amino_acid

>  <Smiles>  (403) 
O=C(c1ccc2c(c1)CN([*:1])C2)[*:2]

>  <ProtectedSmiles>  (403) 
O=C(O)c1ccc2c(c1)CN(C(=O)OCC1c3ccccc3-c3ccccc31)C2

>  <CAS>  (403) 
1564677-76-4

>  <User>  (403) 
emile.b

>  <StereoComment>  (403) 
as drawn

>  <Name>  (403) 
2-{[(9H-fluoren-9-yl)methoxy]carbonyl}-2,3-dihydro-1H-isoindole-5-carboxylic acid

>  <Code>  (403) 
1,5-DHisoInd

>  <AliasLowerCase>  (403) 
1,5-dhisoind

>  <LatestVersion>  (403) 
0.0

>  <createdAt>  (403) 
2026-01-14T11:33:40.110Z

>  <updatedAt>  (403) 
2026-01-14T11:33:40.110Z

>  <NumRotatableBonds>  (403) 
1

>  <is_N_methyl>  (403) 
False

>  <is_a_methyl>  (403) 
False

>  <is_alpha_aa>  (403) 
False

>  <is_beta_aa>  (403) 
False

>  <is_S100_aa>  (403) 
False

>  <Murcko_SMILES>  (403) 
c1ccc2c(c1)CNC2

$$$$

     RDKit          2D

 14 14  0  0  0  0  0  0  0  0999 V2000
    8.2500   -1.2990    0.0000 O   0  0  0  0  0  0  0  0  0  0  0  0
    7.5000    0.0000    0.0000 C   0  0  0  0  0  0  0  0  0  0  0  0
    6.0000    0.0000    0.0000 C   0  0  0  0  0  0  0  0  0  0  0  0
    5.2500   -1.2990    0.0000 N   0  0  0  0  0  0  0  0  0  0  0  0
    3.7500   -1.2990    0.0000 C   0  0  0  0  0  0  0  0  0  0  0  0
    3.0000    0.0000    0.0000 C   0  0  0  0  0  0  0  0  0  0  0  0
    1.5000    0.0000    0.0000 C   0  0  0  0  0  0  0  0  0  0  0  0
    0.7500   -1.2990    0.0000 C   0  0  0  0  0  0  0  0  0  0  0  0
   -0.7500   -1.2990    0.0000 C   0  0  0  0  0  0  0  0  0  0  0  0
   -1.5000    0.0000    0.0000 C   0  0  0  0  0  0  0  0  0  0  0  0
   -0.7500    1.2990    0.0000 C   0  0  0  0  0  0  0  0  0  0  0  0
    0.7500    1.2990    0.0000 C   0  0  0  0  0  0  0  0  0  0  0  0
    6.0000   -2.5981    0.0000 R   0  0  0  0  0  1  0  0  0  1  0  0
    8.2500    1.2990    0.0000 R   0  0  0  0  0  1  0  0  0  2  0  0
  1  2  2  0
  2  3  1  0
  3  4  1  0
  4  5  1  0
  5  6  1  0
  6  7  1  0
  7  8  2  0
  8  9  1  0
  9 10  2  0
 10 11  1  0
 11 12  2  0
  4 13  1  0
  2 14  1  0
 12  7  1  0
M  END
>  <id>  (404) 
6459abea-150b-4043-b9e8-63cb0ee3255c

>  <Version>  (404) 
0

>  <Alias>  (404) 
N-PhEtGly

>  <Type>  (404) 
amino_acid

>  <Smiles>  (404) 
O=C(CN(CCc1ccccc1)[*:1])[*:2]

>  <ProtectedSmiles>  (404) 
O=C(O)CN(CCc1ccccc1)C(=O)OCC1c2ccccc2-c2ccccc21

>  <CAS>  (404) 
540483-58-7

>  <User>  (404) 
clement.gensous@orbismedicines.com

>  <StereoComment>  (404) 
as drawn

>  <Name>  (404) 
N-PhEtGly

>  <Code>  (404) 
N-PhEtGly

>  <AliasLowerCase>  (404) 
n-phetgly

>  <LatestVersion>  (404) 
0.0

>  <createdAt>  (404) 
2026-01-15T09:28:44.206Z

>  <updatedAt>  (404) 
2026-01-15T09:28:44.206Z

>  <NumRotatableBonds>  (404) 
5

>  <is_N_methyl>  (404) 
False

>  <is_a_methyl>  (404) 
False

>  <is_alpha_aa>  (404) 
True

>  <is_beta_aa>  (404) 
False

>  <is_S100_aa>  (404) 
False

>  <Murcko_SMILES>  (404) 
c1ccccc1

$$$$

     RDKit          2D

 10 10  0  0  0  0  0  0  0  0999 V2000
    3.7500    1.2990    0.0000 O   0  0  0  0  0  0  0  0  0  0  0  0
    3.0000    0.0000    0.0000 C   0  0  0  0  0  0  0  0  0  0  0  0
    1.5000    0.0000    0.0000 C   0  0  0  0  0  0  0  0  0  0  0  0
    0.7500   -1.2990    0.0000 C   0  0  0  0  0  0  0  0  0  0  0  0
   -0.7500   -1.2990    0.0000 C   0  0  0  0  0  0  0  0  0  0  0  0
   -1.5000    0.0000    0.0000 C   0  0  0  0  0  0  0  0  0  0  0  0
   -0.7500    1.2990    0.0000 N   0  0  0  0  0  0  0  0  0  0  0  0
   -1.5000    2.5981    0.0000 R   0  0  0  0  0  1  0  0  0  1  0  0
    0.7500    1.2990    0.0000 C   0  0  0  0  0  0  0  0  0  0  0  0
    3.7500   -1.2990    0.0000 R   0  0  0  0  0  1  0  0  0  2  0  0
  1  2  2  0
  3  2  1  1
  3  4  1  0
  4  5  1  0
  5  6  1  0
  6  7  1  0
  7  8  1  0
  7  9  1  0
  2 10  1  0
  9  3  1  0
M  END
>  <id>  (405) 
82cd93ff-1ff7-42f4-8fac-2099724f9c15

>  <Version>  (405) 
0

>  <Alias>  (405) 
Nip

>  <Type>  (405) 
amino_acid

>  <Smiles>  (405) 
O=C([C@H]1CCCN([*:1])C1)[*:2]

>  <ProtectedSmiles>  (405) 
O=C(O)[C@H]1CCCN(C(=O)OCC2c3ccccc3-c3ccccc32)C1

>  <CAS>  (405) 
193693-68-4

>  <User>  (405) 
sevan.h

>  <StereoComment>  (405) 
as drawn

>  <Name>  (405) 
Fmoc-L-Nipecotic acid

>  <Code>  (405) 
Nip

>  <AliasLowerCase>  (405) 
nip

>  <LatestVersion>  (405) 
0.0

>  <createdAt>  (405) 
2026-01-14T12:17:29.643Z

>  <updatedAt>  (405) 
2026-01-14T12:17:29.643Z

>  <NumRotatableBonds>  (405) 
1

>  <is_N_methyl>  (405) 
False

>  <is_a_methyl>  (405) 
False

>  <is_alpha_aa>  (405) 
False

>  <is_beta_aa>  (405) 
True

>  <is_S100_aa>  (405) 
False

>  <Murcko_SMILES>  (405) 
C1CCNCC1

$$$$

     RDKit          2D

 14 14  0  0  0  0  0  0  0  0999 V2000
    6.0000    0.0000    0.0000 O   0  0  0  0  0  0  0  0  0  0  0  0
    5.2500   -1.2990    0.0000 C   0  0  0  0  0  0  0  0  0  0  0  0
    3.7500   -1.2990    0.0000 C   0  0  0  0  0  0  0  0  0  0  0  0
    3.0000    0.0000    0.0000 C   0  0  0  0  0  0  0  0  0  0  0  0
    1.5000    0.0000    0.0000 C   0  0  0  0  0  0  0  0  0  0  0  0
    0.7500   -1.2990    0.0000 C   0  0  0  0  0  0  0  0  0  0  0  0
   -0.7500   -1.2990    0.0000 C   0  0  0  0  0  0  0  0  0  0  0  0
   -1.5000    0.0000    0.0000 C   0  0  0  0  0  0  0  0  0  0  0  0
   -3.0000    0.0000    0.0000 F   0  0  0  0  0  0  0  0  0  0  0  0
   -0.7500    1.2990    0.0000 C   0  0  0  0  0  0  0  0  0  0  0  0
    0.7500    1.2990    0.0000 C   0  0  0  0  0  0  0  0  0  0  0  0
    3.0000   -2.5981    0.0000 N   0  0  0  0  0  0  0  0  0  0  0  0
    3.7500   -3.8971    0.0000 R   0  0  0  0  0  1  0  0  0  1  0  0
    6.0000   -2.5981    0.0000 R   0  0  0  0  0  1  0  0  0  2  0  0
  1  2  2  0
  2  3  1  0
  3  4  1  6
  4  5  1  0
  5  6  2  0
  6  7  1  0
  7  8  2  0
  8  9  1  0
  8 10  1  0
 10 11  2  0
  3 12  1  0
 12 13  1  0
  2 14  1  0
 11  5  1  0
M  END
>  <id>  (406) 
46d6cf2f-23c4-4591-8aa4-5d97bea3a0ec

>  <Version>  (406) 
0

>  <Alias>  (406) 
D-4FPhe

>  <Type>  (406) 
amino_acid

>  <Smiles>  (406) 
O=C([C@@H](Cc1ccc(F)cc1)N[*:1])[*:2]

>  <ProtectedSmiles>  (406) 
O=C(N[C@H](Cc1ccc(F)cc1)C(=O)O)OCC1c2ccccc2-c2ccccc21

>  <CAS>  (406) 
177966-64-2

>  <User>  (406) 
sevan.h

>  <StereoComment>  (406) 
as drawn

>  <Name>  (406) 
Fmoc-D-4-Fluorophenylalanine

>  <Code>  (406) 
D-4FPhe

>  <AliasLowerCase>  (406) 
d-4fphe

>  <LatestVersion>  (406) 
0.0

>  <createdAt>  (406) 
2026-01-14T11:36:44.473Z

>  <updatedAt>  (406) 
2026-01-14T11:36:44.473Z

>  <NumRotatableBonds>  (406) 
4

>  <is_N_methyl>  (406) 
False

>  <is_a_methyl>  (406) 
False

>  <is_alpha_aa>  (406) 
True

>  <is_beta_aa>  (406) 
False

>  <is_S100_aa>  (406) 
False

>  <Murcko_SMILES>  (406) 
c1ccccc1

$$$$

     RDKit          2D

 12 12  0  0  0  0  0  0  0  0999 V2000
    3.7500    1.2990    0.0000 O   0  0  0  0  0  0  0  0  0  0  0  0
    3.0000    0.0000    0.0000 C   0  0  0  0  0  0  0  0  0  0  0  0
    1.5000    0.0000    0.0000 C   0  0  0  0  0  0  0  0  0  0  0  0
    0.7500   -1.2990    0.0000 C   0  0  0  0  0  0  0  0  0  0  0  0
    1.5000   -2.5981    0.0000 Cl  0  0  0  0  0  0  0  0  0  0  0  0
   -0.7500   -1.2990    0.0000 C   0  0  0  0  0  0  0  0  0  0  0  0
   -1.5000    0.0000    0.0000 C   0  0  0  0  0  0  0  0  0  0  0  0
   -0.7500    1.2990    0.0000 C   0  0  0  0  0  0  0  0  0  0  0  0
    0.7500    1.2990    0.0000 C   0  0  0  0  0  0  0  0  0  0  0  0
    1.5000    2.5981    0.0000 N   0  0  0  0  0  0  0  0  0  0  0  0
    0.7500    3.8971    0.0000 R   0  0  0  0  0  1  0  0  0  1  0  0
    3.7500   -1.2990    0.0000 R   0  0  0  0  0  1  0  0  0  2  0  0
  1  2  2  0
  2  3  1  0
  3  4  2  0
  4  5  1  0
  4  6  1  0
  6  7  2  0
  7  8  1  0
  8  9  2  0
  9 10  1  0
 10 11  1  0
  2 12  1  0
  9  3  1  0
M  END
>  <id>  (407) 
7121dd6d-6728-48a1-91bf-b355ad60cdaf

>  <Version>  (407) 
0

>  <Alias>  (407) 
2Cl-6-Abz

>  <Type>  (407) 
amino_acid

>  <Smiles>  (407) 
O=C(c1c(Cl)cccc1N[*:1])[*:2]

>  <ProtectedSmiles>  (407) 
O=C(Nc1cccc(Cl)c1C(=O)O)OCC1c2ccccc2-c2ccccc21

>  <CAS>  (407) 
914348-17-7

>  <User>  (407) 
mischa.s

>  <StereoComment>  (407) 
as drawn

>  <Name>  (407) 
2-chloro-6-({[(9H-fluoren-9-yl)methoxy]carbonyl}amino)benzoic acid

>  <Code>  (407) 
2Cl-6-Abz

>  <AliasLowerCase>  (407) 
2cl-6-abz

>  <LatestVersion>  (407) 
0.0

>  <createdAt>  (407) 
2026-01-14T11:34:52.906Z

>  <updatedAt>  (407) 
2026-01-14T11:34:52.906Z

>  <NumRotatableBonds>  (407) 
2

>  <is_N_methyl>  (407) 
False

>  <is_a_methyl>  (407) 
False

>  <is_alpha_aa>  (407) 
False

>  <is_beta_aa>  (407) 
False

>  <is_S100_aa>  (407) 
False

>  <Murcko_SMILES>  (407) 
c1ccccc1

$$$$

     RDKit          2D

 13 14  0  0  0  0  0  0  0  0999 V2000
    3.7548   -2.1855    0.0000 O   0  0  0  0  0  0  0  0  0  0  0  0
    2.6401   -3.1891    0.0000 C   0  0  0  0  0  0  0  0  0  0  0  0
    1.2135   -2.7256    0.0000 C   0  0  0  0  0  0  0  0  0  0  0  0
    0.0000   -3.6073    0.0000 N   0  0  0  0  0  0  0  0  0  0  0  0
   -1.2135   -2.7256    0.0000 O   0  0  0  0  0  0  0  0  0  0  0  0
   -0.7500   -1.2990    0.0000 C   0  0  0  0  0  0  0  0  0  0  0  0
    0.7500   -1.2990    0.0000 C   0  0  0  0  0  0  0  0  0  0  0  0
    1.5000    0.0000    0.0000 C   0  0  0  0  0  0  0  0  0  0  0  0
    0.7500    1.2990    0.0000 N   0  0  0  0  0  0  0  0  0  0  0  0
    1.5000    2.5981    0.0000 R   0  0  0  0  0  1  0  0  0  1  0  0
   -0.7500    1.2990    0.0000 C   0  0  0  0  0  0  0  0  0  0  0  0
   -1.5000    0.0000    0.0000 C   0  0  0  0  0  0  0  0  0  0  0  0
    2.9520   -4.6564    0.0000 R   0  0  0  0  0  1  0  0  0  2  0  0
  1  2  2  0
  2  3  1  0
  3  4  2  0
  4  5  1  0
  5  6  1  0
  6  7  2  0
  7  8  1  0
  8  9  1  0
  9 10  1  0
  9 11  1  0
 11 12  1  0
  2 13  1  0
  7  3  1  0
 12  6  1  0
M  END
>  <id>  (408) 
6a044b8b-73d3-479c-85a8-932aab0d5932

>  <Version>  (408) 
0

>  <Alias>  (408) 
OxPyrCA

>  <Type>  (408) 
amino_acid

>  <Smiles>  (408) 
O=C(c1noc2c1CN([*:1])CC2)[*:2]

>  <ProtectedSmiles>  (408) 
O=C(O)c1noc2c1CN(C(=O)OCC1c3ccccc3-c3ccccc31)CC2

>  <CAS>  (408) 
2091858-74-9

>  <User>  (408) 
Sevan.habeshian@orbismedicines.com

>  <StereoComment>  (408) 
as drawn

>  <Name>  (408) 
N/A

>  <Code>  (408) 
OxPyrCA

>  <AliasLowerCase>  (408) 
oxpyrca

>  <LatestVersion>  (408) 
0.0

>  <createdAt>  (408) 
2026-02-13T09:56:35.495Z

>  <updatedAt>  (408) 
2026-02-13T09:56:35.495Z

>  <NumRotatableBonds>  (408) 
1

>  <is_N_methyl>  (408) 
False

>  <is_a_methyl>  (408) 
False

>  <is_alpha_aa>  (408) 
False

>  <is_beta_aa>  (408) 
False

>  <is_S100_aa>  (408) 
False

>  <Murcko_SMILES>  (408) 
c1noc2c1CNCC2

$$$$

     RDKit          2D

 13 14  0  0  0  0  0  0  0  0999 V2000
    3.5260    1.2990    0.0000 O   0  0  0  0  0  0  0  0  0  0  0  0
    2.7760    0.0000    0.0000 C   0  0  0  0  0  0  0  0  0  0  0  0
    1.2760    0.0000    0.0000 C   0  0  0  0  0  0  0  0  0  0  0  0
    0.3943    1.2135    0.0000 N   0  0  0  0  0  0  0  0  0  0  0  0
   -1.0323    0.7500    0.0000 O   0  0  0  0  0  0  0  0  0  0  0  0
   -1.0323   -0.7500    0.0000 C   0  0  0  0  0  0  0  0  0  0  0  0
   -1.0323   -2.2500    0.0000 C   0  0  0  0  0  0  0  0  0  0  0  0
   -2.4589   -2.7135    0.0000 C   0  0  0  0  0  0  0  0  0  0  0  0
   -3.3405   -1.5000    0.0000 N   0  0  0  0  0  0  0  0  0  0  0  0
   -4.8405   -1.5000    0.0000 R   0  0  0  0  0  1  0  0  0  1  0  0
   -2.4589   -0.2865    0.0000 C   0  0  0  0  0  0  0  0  0  0  0  0
    0.3943   -1.2135    0.0000 C   0  0  0  0  0  0  0  0  0  0  0  0
    3.5260   -1.2990    0.0000 R   0  0  0  0  0  1  0  0  0  2  0  0
  1  2  2  0
  2  3  1  0
  3  4  2  0
  4  5  1  0
  5  6  1  0
  6  7  1  0
  7  8  1  0
  8  9  1  0
  9 10  1  0
  9 11  1  0
  6 12  1  0
  2 13  1  0
 12  3  1  0
 11  6  1  0
M  END
>  <id>  (409) 
d6975789-c513-495a-b8fb-b1b878c36ddb

>  <Version>  (409) 
0

>  <Alias>  (409) 
DASpiroNonCA

>  <Type>  (409) 
amino_acid

>  <Smiles>  (409) 
O=C(C1=NOC2(CCN([*:1])C2)C1)[*:2]

>  <ProtectedSmiles>  (409) 
O=C(O)C1=NOC2(CCN(C(=O)OCC3c4ccccc4-c4ccccc43)C2)C1

>  <CAS>  (409) 
2649075-05-6

>  <User>  (409) 
Sevan.habeshian@orbismedicines.com

>  <StereoComment>  (409) 
as drawn

>  <Name>  (409) 
N/A

>  <Code>  (409) 
DASpiroNonCA

>  <AliasLowerCase>  (409) 
daspirononca

>  <LatestVersion>  (409) 
0.0

>  <createdAt>  (409) 
2026-02-13T09:56:35.752Z

>  <updatedAt>  (409) 
2026-02-13T09:56:35.752Z

>  <NumRotatableBonds>  (409) 
1

>  <is_N_methyl>  (409) 
False

>  <is_a_methyl>  (409) 
False

>  <is_alpha_aa>  (409) 
False

>  <is_beta_aa>  (409) 
False

>  <is_S100_aa>  (409) 
False

>  <Murcko_SMILES>  (409) 
C1=NOC2(C1)CCNC2

$$$$

     RDKit          2D

 11 11  0  0  0  0  0  0  0  0999 V2000
    3.7500    1.2990    0.0000 O   0  0  0  0  0  0  0  0  0  0  0  0
    3.0000    0.0000    0.0000 C   0  0  0  0  0  0  0  0  0  0  0  0
    1.5000    0.0000    0.0000 C   0  0  0  0  0  0  0  0  0  0  0  0
    0.7500   -1.2990    0.0000 C   0  0  0  0  0  0  0  0  0  0  0  0
   -0.7500   -1.2990    0.0000 C   0  0  0  0  0  0  0  0  0  0  0  0
   -1.5000    0.0000    0.0000 C   0  0  0  0  0  0  0  0  0  0  0  0
   -0.7500    1.2990    0.0000 C   0  0  0  0  0  0  0  0  0  0  0  0
    0.7500    1.2990    0.0000 C   0  0  0  0  0  0  0  0  0  0  0  0
    1.5000    2.5981    0.0000 N   0  0  0  0  0  0  0  0  0  0  0  0
    0.7500    3.8971    0.0000 R   0  0  0  0  0  1  0  0  0  1  0  0
    3.7500   -1.2990    0.0000 R   0  0  0  0  0  1  0  0  0  2  0  0
  1  2  2  0
  3  2  1  1
  3  4  1  0
  4  5  1  0
  5  6  1  0
  6  7  1  0
  7  8  1  0
  8  9  1  6
  9 10  1  0
  2 11  1  0
  8  3  1  0
M  END
>  <id>  (410) 
b58c8536-2e16-4342-8f50-fed19c5104c0

>  <Version>  (410) 
0

>  <Alias>  (410) 
1S,2S-ACH

>  <Type>  (410) 
amino_acid

>  <Smiles>  (410) 
O=C([C@H]1CCCC[C@@H]1N[*:1])[*:2]

>  <ProtectedSmiles>  (410) 
O=C(N[C@H]1CCCC[C@@H]1C(=O)O)OCC1c2ccccc2-c2ccccc21

>  <CAS>  (410) 
312965-07-4

>  <User>  (410) 
angelica.l

>  <StereoComment>  (410) 
as drawn

>  <Name>  (410) 
(1S,2S)-Fmoc-2-aminocyclohexane carboxylic acid

>  <Code>  (410) 
1S,2S-ACH

>  <AliasLowerCase>  (410) 
1s,2s-ach

>  <LatestVersion>  (410) 
0.0

>  <createdAt>  (410) 
2026-01-14T11:36:17.028Z

>  <updatedAt>  (410) 
2026-01-14T11:36:17.028Z

>  <NumRotatableBonds>  (410) 
2

>  <is_N_methyl>  (410) 
False

>  <is_a_methyl>  (410) 
False

>  <is_alpha_aa>  (410) 
False

>  <is_beta_aa>  (410) 
True

>  <is_S100_aa>  (410) 
False

>  <Murcko_SMILES>  (410) 
C1CCCCC1

$$$$

     RDKit          2D

 19 20  0  0  0  0  0  0  0  0999 V2000
    3.0000   -2.5981    0.0000 O   0  0  0  0  0  0  0  0  0  0  0  0
    1.5000   -2.5981    0.0000 C   0  0  0  0  0  0  0  0  0  0  0  0
    0.7500   -1.2990    0.0000 C   0  0  0  0  0  0  0  0  0  0  0  0
    1.5000    0.0000    0.0000 C   0  0  0  0  0  0  0  0  0  0  0  0
    0.7500    1.2990    0.0000 C   0  0  0  0  0  0  0  0  0  0  0  0
   -0.7500    1.2990    0.0000 C   0  0  0  0  0  0  0  0  0  0  0  0
   -1.5000    0.0000    0.0000 C   0  0  0  0  0  0  0  0  0  0  0  0
   -3.0000    0.0000    0.0000 Cl  0  0  0  0  0  0  0  0  0  0  0  0
   -0.7500   -1.2990    0.0000 C   0  0  0  0  0  0  0  0  0  0  0  0
    0.7500   -3.8971    0.0000 N   0  0  0  0  0  0  0  0  0  0  0  0
   -0.7500   -3.8971    0.0000 C   0  0  0  0  0  0  0  0  0  0  0  0
   -1.5000   -5.1962    0.0000 C   0  0  0  0  0  0  0  0  0  0  0  0
   -0.7500   -6.4952    0.0000 N   0  0  0  0  0  0  0  0  0  0  0  0
   -1.5000   -7.7942    0.0000 R   0  0  0  0  0  1  0  0  0  1  0  0
    0.7500   -6.4952    0.0000 C   0  0  0  0  0  0  0  0  0  0  0  0
    1.5000   -7.7942    0.0000 C   0  0  0  0  0  0  0  0  0  0  0  0
    0.7500   -9.0933    0.0000 O   0  0  0  0  0  0  0  0  0  0  0  0
    3.0000   -7.7942    0.0000 R   0  0  0  0  0  1  0  0  0  2  0  0
    1.5000   -5.1962    0.0000 C   0  0  0  0  0  0  0  0  0  0  0  0
  1  2  2  0
  2  3  1  0
  3  4  2  0
  4  5  1  0
  5  6  2  0
  6  7  1  0
  7  8  1  0
  7  9  2  0
  2 10  1  0
 10 11  1  0
 11 12  1  0
 12 13  1  0
 13 14  1  0
 13 15  1  0
 15 16  1  1
 16 17  2  0
 16 18  1  0
 15 19  1  0
  9  3  1  0
 19 10  1  0
M  END
>  <id>  (411) 
6976a930-f51c-4fbd-ba28-ebd9a43f4416

>  <Version>  (411) 
0

>  <Alias>  (411) 
7(a55)

>  <Type>  (411) 
amino_acid

>  <Smiles>  (411) 
O=C(c1cccc(Cl)c1)N1CCN([*:1])[C@H](C(=O)[*:2])C1

>  <ProtectedSmiles>  (411) 
O=C(O)[C@@H]1CN(C(=O)c2cccc(Cl)c2)CCN1C(=O)OCC1c2ccccc2-c2ccccc21

>  <CAS>  (411) 


>  <User>  (411) 
gontran.s

>  <StereoComment>  (411) 
as drawn

>  <Name>  (411) 
(S)-1-Fmoc-4-(a55)-piperazine-2-carboxylic acid

>  <Code>  (411) 
7(a55)

>  <AliasLowerCase>  (411) 
7(a55)

>  <LatestVersion>  (411) 
0.0

>  <createdAt>  (411) 
2026-01-14T11:37:56.728Z

>  <updatedAt>  (411) 
2026-01-14T11:37:56.728Z

>  <NumRotatableBonds>  (411) 
2

>  <is_N_methyl>  (411) 
False

>  <is_a_methyl>  (411) 
False

>  <is_alpha_aa>  (411) 
True

>  <is_beta_aa>  (411) 
False

>  <is_S100_aa>  (411) 
False

>  <Murcko_SMILES>  (411) 
O=C(c1ccccc1)N1CCNCC1

$$$$

     RDKit          2D

 15 15  0  0  0  0  0  0  0  0999 V2000
    3.7500   -1.2990    0.0000 C   0  0  0  0  0  0  0  0  0  0  0  0
    3.0000    0.0000    0.0000 O   0  0  0  0  0  0  0  0  0  0  0  0
    1.5000    0.0000    0.0000 C   0  0  0  0  0  0  0  0  0  0  0  0
    0.7500   -1.2990    0.0000 C   0  0  0  0  0  0  0  0  0  0  0  0
   -0.7500   -1.2990    0.0000 C   0  0  0  0  0  0  0  0  0  0  0  0
   -1.5000    0.0000    0.0000 C   0  0  0  0  0  0  0  0  0  0  0  0
   -0.7500    1.2990    0.0000 C   0  0  0  0  0  0  0  0  0  0  0  0
    0.7500    1.2990    0.0000 C   0  0  0  0  0  0  0  0  0  0  0  0
    1.5000    2.5981    0.0000 C   0  0  0  0  0  0  0  0  0  0  0  0
    3.0000    2.5981    0.0000 C   0  0  0  0  0  0  0  0  0  0  0  0
    3.7500    1.2990    0.0000 N   0  0  0  0  0  0  0  0  0  0  0  0
    5.2500    1.2990    0.0000 R   0  0  0  0  0  1  0  0  0  1  0  0
    3.7500    3.8971    0.0000 C   0  0  0  0  0  0  0  0  0  0  0  0
    3.0000    5.1962    0.0000 O   0  0  0  0  0  0  0  0  0  0  0  0
    5.2500    3.8971    0.0000 R   0  0  0  0  0  1  0  0  0  2  0  0
  1  2  1  0
  2  3  1  0
  3  4  2  0
  4  5  1  0
  5  6  2  0
  6  7  1  0
  7  8  2  0
  8  9  1  0
 10  9  1  6
 10 11  1  0
 11 12  1  0
 10 13  1  0
 13 14  2  0
 13 15  1  0
  8  3  1  0
M  END
>  <id>  (412) 
6b995e50-a764-41eb-b84c-9890e3712dd3

>  <Version>  (412) 
0

>  <Alias>  (412) 
D-2MeOPhe

>  <Type>  (412) 
amino_acid

>  <Smiles>  (412) 
COc1ccccc1C[C@@H](N[*:1])C(=O)[*:2]

>  <ProtectedSmiles>  (412) 
COc1ccccc1C[C@@H](NC(=O)OCC1c2ccccc2-c2ccccc21)C(=O)O

>  <CAS>  (412) 
170642-30-5

>  <User>  (412) 
angelica.l

>  <StereoComment>  (412) 
as drawn

>  <Name>  (412) 
Fmoc-2-methoxy-D-phenylalanine

>  <Code>  (412) 
D-2MeOPhe

>  <AliasLowerCase>  (412) 
d-2meophe

>  <LatestVersion>  (412) 
0.0

>  <createdAt>  (412) 
2026-01-14T11:34:24.776Z

>  <updatedAt>  (412) 
2026-01-14T11:34:24.776Z

>  <NumRotatableBonds>  (412) 
5

>  <is_N_methyl>  (412) 
False

>  <is_a_methyl>  (412) 
False

>  <is_alpha_aa>  (412) 
True

>  <is_beta_aa>  (412) 
False

>  <is_S100_aa>  (412) 
False

>  <Murcko_SMILES>  (412) 
c1ccccc1

$$$$

     RDKit          2D

 14 14  0  0  0  0  0  0  0  0999 V2000
    3.0000    0.0000    0.0000 C   0  0  0  0  0  0  0  0  0  0  0  0
    1.5000    0.0000    0.0000 C   0  0  0  0  0  0  0  0  0  0  0  0
    0.7500   -1.2990    0.0000 C   0  0  0  0  0  0  0  0  0  0  0  0
   -0.7500   -1.2990    0.0000 C   0  0  0  0  0  0  0  0  0  0  0  0
   -1.5000    0.0000    0.0000 C   0  0  0  0  0  0  0  0  0  0  0  0
   -3.0000    0.0000    0.0000 C   0  0  0  0  0  0  0  0  0  0  0  0
   -3.7500    1.2990    0.0000 C   0  0  0  0  0  0  0  0  0  0  0  0
   -3.0000    2.5981    0.0000 N   0  0  0  0  0  0  0  0  0  0  0  0
   -3.7500    3.8971    0.0000 R   0  0  0  0  0  1  0  0  0  1  0  0
   -5.2500    1.2990    0.0000 C   0  0  0  0  0  0  0  0  0  0  0  0
   -6.0000   -0.0000    0.0000 O   0  0  0  0  0  0  0  0  0  0  0  0
   -6.0000    2.5981    0.0000 R   0  0  0  0  0  1  0  0  0  2  0  0
   -0.7500    1.2990    0.0000 C   0  0  0  0  0  0  0  0  0  0  0  0
    0.7500    1.2990    0.0000 C   0  0  0  0  0  0  0  0  0  0  0  0
  1  2  1  0
  2  3  2  0
  3  4  1  0
  4  5  2  0
  5  6  1  0
  7  6  1  6
  7  8  1  0
  8  9  1  0
  7 10  1  0
 10 11  2  0
 10 12  1  0
  5 13  1  0
 13 14  2  0
 14  2  1  0
M  END
>  <id>  (413) 
5a174789-cb95-4c25-9be9-b1a8efc2f4ae

>  <Version>  (413) 
0

>  <Alias>  (413) 
(4Me)-D-Phe

>  <Type>  (413) 
amino_acid

>  <Smiles>  (413) 
Cc1ccc(C[C@@H](N[*:1])C(=O)[*:2])cc1

>  <ProtectedSmiles>  (413) 
Cc1ccc(C[C@@H](NC(=O)OCC2c3ccccc3-c3ccccc32)C(=O)O)cc1

>  <CAS>  (413) 
204260-38-8

>  <User>  (413) 
gontran.s

>  <StereoComment>  (413) 
as drawn

>  <Name>  (413) 
Fmoc-4-methyl-D-phenylalanine

>  <Code>  (413) 
(4Me)-D-Phe

>  <AliasLowerCase>  (413) 
(4me)-d-phe

>  <LatestVersion>  (413) 
0.0

>  <createdAt>  (413) 
2026-01-14T11:37:01.023Z

>  <updatedAt>  (413) 
2026-01-14T11:37:01.023Z

>  <NumRotatableBonds>  (413) 
4

>  <is_N_methyl>  (413) 
False

>  <is_a_methyl>  (413) 
False

>  <is_alpha_aa>  (413) 
True

>  <is_beta_aa>  (413) 
False

>  <is_S100_aa>  (413) 
False

>  <Murcko_SMILES>  (413) 
c1ccccc1

$$$$

     RDKit          2D

  9  8  0  0  0  0  0  0  0  0999 V2000
    5.1962   -0.0000    0.0000 C   0  0  0  0  0  0  0  0  0  0  0  0
    3.8971    0.7500    0.0000 C   0  0  0  0  0  0  0  0  0  0  0  0
    3.8971    2.2500    0.0000 O   0  0  0  0  0  0  0  0  0  0  0  0
    2.5981   -0.0000    0.0000 C   0  0  0  0  0  0  0  0  0  0  0  0
    1.2990    0.7500    0.0000 N   0  0  0  0  0  0  0  0  0  0  0  0
    0.0000    0.0000    0.0000 R   0  0  0  0  0  1  0  0  0  1  0  0
    2.5981   -1.5000    0.0000 C   0  0  0  0  0  0  0  0  0  0  0  0
    1.2990   -2.2500    0.0000 O   0  0  0  0  0  0  0  0  0  0  0  0
    3.8971   -2.2500    0.0000 R   0  0  0  0  0  1  0  0  0  2  0  0
  2  1  1  6
  2  3  1  0
  2  4  1  0
  4  5  1  6
  5  6  1  0
  4  7  1  0
  7  8  2  0
  7  9  1  0
M  END
>  <id>  (414) 
af995fbc-9b76-4d5b-837a-651c2a99520f

>  <Version>  (414) 
0

>  <Alias>  (414) 
D-allo-Thr

>  <Type>  (414) 
amino_acid

>  <Smiles>  (414) 
C[C@@H](O)[C@@H](N[*:1])C(=O)[*:2]

>  <ProtectedSmiles>  (414) 
C[C@@H](OC(C)(C)C)[C@@H](NC(=O)OCC1c2ccccc2-c2ccccc21)C(=O)O

>  <CAS>  (414) 
170643-02-4

>  <User>  (414) 
mischa.s

>  <StereoComment>  (414) 
as drawn

>  <Name>  (414) 
Fmoc-D-allo-Thr(OtBu)-OH

>  <Code>  (414) 
D-allo-Thr

>  <AliasLowerCase>  (414) 
d-allo-thr

>  <LatestVersion>  (414) 
0.0

>  <createdAt>  (414) 
2026-01-14T11:38:28.993Z

>  <updatedAt>  (414) 
2026-01-14T11:38:28.993Z

>  <NumRotatableBonds>  (414) 
3

>  <is_N_methyl>  (414) 
False

>  <is_a_methyl>  (414) 
False

>  <is_alpha_aa>  (414) 
True

>  <is_beta_aa>  (414) 
False

>  <is_S100_aa>  (414) 
False

>  <Murcko_SMILES>  (414) 


$$$$

     RDKit          2D

 15 16  0  0  0  0  0  0  0  0999 V2000
    5.8875   -3.9505    0.0000 O   0  0  0  0  0  0  0  0  0  0  0  0
    4.6740   -4.8322    0.0000 C   0  0  0  0  0  0  0  0  0  0  0  0
    3.3037   -4.2221    0.0000 C   0  0  0  0  0  0  0  0  0  0  0  0
    2.9918   -2.7549    0.0000 C   0  0  0  0  0  0  0  0  0  0  0  0
    1.5000   -2.5981    0.0000 C   0  0  0  0  0  0  0  0  0  0  0  0
    0.7500   -1.2990    0.0000 C   0  0  0  0  0  0  0  0  0  0  0  0
    1.5000    0.0000    0.0000 C   0  0  0  0  0  0  0  0  0  0  0  0
    0.7500    1.2990    0.0000 C   0  0  0  0  0  0  0  0  0  0  0  0
   -0.7500    1.2990    0.0000 C   0  0  0  0  0  0  0  0  0  0  0  0
   -1.5000    0.0000    0.0000 C   0  0  0  0  0  0  0  0  0  0  0  0
   -0.7500   -1.2990    0.0000 C   0  0  0  0  0  0  0  0  0  0  0  0
    0.8899   -3.9684    0.0000 C   0  0  0  0  0  0  0  0  0  0  0  0
    2.0046   -4.9721    0.0000 N   0  0  0  0  0  0  0  0  0  0  0  0
    1.8478   -6.4639    0.0000 R   0  0  0  0  0  1  0  0  0  1  0  0
    4.8308   -6.3240    0.0000 R   0  0  0  0  0  1  0  0  0  2  0  0
  1  2  2  0
  3  2  1  1
  3  4  1  0
  4  5  1  0
  5  6  1  6
  6  7  2  0
  7  8  1  0
  8  9  2  0
  9 10  1  0
 10 11  2  0
  5 12  1  0
 12 13  1  0
 13 14  1  0
  2 15  1  0
 13  3  1  0
 11  6  1  0
M  END
>  <id>  (415) 
0525deec-ee1a-4ef4-97f3-8e0fa025e829

>  <Version>  (415) 
0

>  <Alias>  (415) 
4PhePro

>  <Type>  (415) 
amino_acid

>  <Smiles>  (415) 
O=C([C@@H]1C[C@@H](c2ccccc2)CN1[*:1])[*:2]

>  <ProtectedSmiles>  (415) 
O=C(O)[C@@H]1C[C@@H](c2ccccc2)CN1C(=O)OCC1c2ccccc2-c2ccccc21

>  <CAS>  (415) 
269078-71-9

>  <User>  (415) 
sevan.h

>  <StereoComment>  (415) 
as drawn

>  <Name>  (415) 
(2S,4S)-Fmoc-4-phenyl-proline

>  <Code>  (415) 
4PhePro

>  <AliasLowerCase>  (415) 
4phepro

>  <LatestVersion>  (415) 
0.0

>  <createdAt>  (415) 
2026-01-14T12:16:05.679Z

>  <updatedAt>  (415) 
2026-01-14T12:16:05.679Z

>  <NumRotatableBonds>  (415) 
2

>  <is_N_methyl>  (415) 
False

>  <is_a_methyl>  (415) 
False

>  <is_alpha_aa>  (415) 
True

>  <is_beta_aa>  (415) 
False

>  <is_S100_aa>  (415) 
False

>  <Murcko_SMILES>  (415) 
c1ccc([C@@H]2CCNC2)cc1

$$$$

     RDKit          2D

 11 10  0  0  0  0  0  0  0  0999 V2000
    9.0933    0.7500    0.0000 C   0  0  0  0  0  0  0  0  0  0  0  0
    7.7942   -0.0000    0.0000 C   0  0  0  0  0  0  0  0  0  0  0  0
    6.4952    0.7500    0.0000 C   0  0  0  0  0  0  0  0  0  0  0  0
    5.1962   -0.0000    0.0000 C   0  0  0  0  0  0  0  0  0  0  0  0
    3.8971    0.7500    0.0000 C   0  0  0  0  0  0  0  0  0  0  0  0
    2.5981   -0.0000    0.0000 C   0  0  0  0  0  0  0  0  0  0  0  0
    1.2990    0.7500    0.0000 C   0  0  0  0  0  0  0  0  0  0  0  0
    1.2990    2.2500    0.0000 O   0  0  0  0  0  0  0  0  0  0  0  0
    0.0000    0.0000    0.0000 R   0  0  0  0  0  1  0  0  0  2  0  0
    3.8971    2.2500    0.0000 N   0  0  0  0  0  0  0  0  0  0  0  0
    5.1962    3.0000    0.0000 R   0  0  0  0  0  1  0  0  0  1  0  0
  1  2  1  0
  2  3  1  0
  3  4  1  0
  5  4  1  1
  5  6  1  0
  6  7  1  0
  7  8  2  0
  7  9  1  0
  5 10  1  0
 10 11  1  0
M  END
>  <id>  (416) 
2d242fcb-a591-417a-b70b-d19b446f68cf

>  <Version>  (416) 
0

>  <Alias>  (416) 
B-h-nLeu

>  <Type>  (416) 
amino_acid

>  <Smiles>  (416) 
CCCC[C@@H](CC(=O)[*:2])N[*:1]

>  <ProtectedSmiles>  (416) 
CCCC[C@@H](CC(=O)O)NC(=O)OCC1c2ccccc2-c2ccccc21

>  <CAS>  (416) 
244227-60-9

>  <User>  (416) 
Sevan.habeshian@orbismedicines.com

>  <StereoComment>  (416) 
as drawn

>  <Name>  (416) 
N/A

>  <Code>  (416) 
B-h-nLeu

>  <AliasLowerCase>  (416) 
b-h-nleu

>  <LatestVersion>  (416) 
0.0

>  <createdAt>  (416) 
2026-02-13T09:56:36.357Z

>  <updatedAt>  (416) 
2026-02-13T09:56:36.357Z

>  <NumRotatableBonds>  (416) 
6

>  <is_N_methyl>  (416) 
False

>  <is_a_methyl>  (416) 
False

>  <is_alpha_aa>  (416) 
False

>  <is_beta_aa>  (416) 
True

>  <is_S100_aa>  (416) 
False

>  <Murcko_SMILES>  (416) 


$$$$

     RDKit          2D

 14 15  0  0  0  0  0  0  0  0999 V2000
    3.5260    1.2990    0.0000 O   0  0  0  0  0  0  0  0  0  0  0  0
    2.7760    0.0000    0.0000 C   0  0  0  0  0  0  0  0  0  0  0  0
    1.2760    0.0000    0.0000 C   0  0  0  0  0  0  0  0  0  0  0  0
    0.3943    1.2135    0.0000 C   0  0  0  0  0  0  0  0  0  0  0  0
   -1.0323    0.7500    0.0000 O   0  0  0  0  0  0  0  0  0  0  0  0
   -1.0323   -0.7500    0.0000 C   0  0  0  0  0  0  0  0  0  0  0  0
   -2.2458   -1.6317    0.0000 C   0  0  0  0  0  0  0  0  0  0  0  0
   -2.2458   -3.1317    0.0000 C   0  0  0  0  0  0  0  0  0  0  0  0
   -3.6724   -3.5952    0.0000 C   0  0  0  0  0  0  0  0  0  0  0  0
   -4.5541   -2.3817    0.0000 N   0  0  0  0  0  0  0  0  0  0  0  0
   -6.0541   -2.3817    0.0000 R   0  0  0  0  0  1  0  0  0  1  0  0
   -3.6724   -1.1682    0.0000 C   0  0  0  0  0  0  0  0  0  0  0  0
    0.3943   -1.2135    0.0000 N   0  0  0  0  0  0  0  0  0  0  0  0
    3.5260   -1.2990    0.0000 R   0  0  0  0  0  1  0  0  0  2  0  0
  1  2  2  0
  2  3  1  0
  3  4  2  0
  4  5  1  0
  5  6  1  0
  7  6  1  6
  7  8  1  0
  8  9  1  0
  9 10  1  0
 10 11  1  0
 10 12  1  0
  6 13  2  0
  2 14  1  0
 13  3  1  0
 12  7  1  0
M  END
>  <id>  (417) 
f326d682-8d90-4449-ade5-c2f9a58805d4

>  <Version>  (417) 
0

>  <Alias>  (417) 
3Pyrr_2Oxa

>  <Type>  (417) 
amino_acid

>  <Smiles>  (417) 
O=C(c1coc([C@@H]2CCN([*:1])C2)n1)[*:2]

>  <ProtectedSmiles>  (417) 
O=C(O)c1coc([C@@H]2CCN(C(=O)OCC3c4ccccc4-c4ccccc43)C2)n1

>  <CAS>  (417) 


>  <User>  (417) 
claire.m

>  <StereoComment>  (417) 
as drawn

>  <Name>  (417) 
Î±-[[(9H-Fluoren-9-ylmethoxy)carbonyl]amino]-1H-indole-3-acetic acid

>  <Code>  (417) 
3Pyrr_2Oxa

>  <AliasLowerCase>  (417) 
3pyrr_2oxa

>  <LatestVersion>  (417) 
0.0

>  <createdAt>  (417) 
2026-01-14T11:32:21.866Z

>  <updatedAt>  (417) 
2026-01-14T11:32:21.866Z

>  <NumRotatableBonds>  (417) 
2

>  <is_N_methyl>  (417) 
False

>  <is_a_methyl>  (417) 
False

>  <is_alpha_aa>  (417) 
False

>  <is_beta_aa>  (417) 
False

>  <is_S100_aa>  (417) 
False

>  <Murcko_SMILES>  (417) 
c1coc([C@@H]2CCNC2)n1

$$$$

     RDKit          2D

 13 14  0  0  0  0  0  0  0  0999 V2000
    3.1235   -0.2423    0.0000 O   0  0  0  0  0  0  0  0  0  0  0  0
    2.2418   -1.4558    0.0000 C   0  0  0  0  0  0  0  0  0  0  0  0
    0.7500   -1.2990    0.0000 C   0  0  0  0  0  0  0  0  0  0  0  0
    1.5000    0.0000    0.0000 C   0  0  0  0  0  0  0  0  0  0  0  0
    0.7500    1.2990    0.0000 C   0  0  0  0  0  0  0  0  0  0  0  0
   -0.7500    1.2990    0.0000 O   0  0  0  0  0  0  0  0  0  0  0  0
   -1.5000    0.0000    0.0000 C   0  0  0  0  0  0  0  0  0  0  0  0
   -0.7500   -1.2990    0.0000 C   0  0  0  0  0  0  0  0  0  0  0  0
   -1.2135   -2.7256    0.0000 C   0  0  0  0  0  0  0  0  0  0  0  0
    0.0000   -3.6073    0.0000 N   0  0  0  0  0  0  0  0  0  0  0  0
    0.0000   -5.1073    0.0000 R   0  0  0  0  0  1  0  0  0  1  0  0
    1.2135   -2.7256    0.0000 C   0  0  0  0  0  0  0  0  0  0  0  0
    2.8519   -2.8261    0.0000 R   0  0  0  0  0  1  0  0  0  2  0  0
  1  2  2  0
  3  2  1  6
  3  4  1  0
  4  5  1  0
  5  6  1  0
  6  7  1  0
  8  7  1  1
  8  9  1  0
  9 10  1  0
 10 11  1  0
 10 12  1  0
  2 13  1  0
  8  3  1  0
 12  3  1  0
M  END
>  <id>  (418) 
fccd232b-7d6a-4330-a65b-8800763e051f

>  <Version>  (418) 
0

>  <Alias>  (418) 
(3aS,7aS)IsoindOL-CA

>  <Type>  (418) 
amino_acid

>  <Smiles>  (418) 
O=C([C@@]12CCOC[C@@H]1CN([*:1])C2)[*:2]

>  <ProtectedSmiles>  (418) 
O=C(OCC1c2ccccc2-c2ccccc21)N1C[C@H]2COCC[C@@]2(C(=O)O)C1

>  <CAS>  (418) 
2138072-66-7

>  <User>  (418) 
Sevan.habeshian@orbismedicines.com

>  <StereoComment>  (418) 
rac-cis

>  <Name>  (418) 
N/A

>  <Code>  (418) 
(3aS,7aS)IsoindOL-CA

>  <AliasLowerCase>  (418) 
(3as,7as)isoindol-ca

>  <LatestVersion>  (418) 
0.0

>  <createdAt>  (418) 
2026-02-13T09:56:36.368Z

>  <updatedAt>  (418) 
2026-02-13T09:56:36.368Z

>  <NumRotatableBonds>  (418) 
1

>  <is_N_methyl>  (418) 
False

>  <is_a_methyl>  (418) 
False

>  <is_alpha_aa>  (418) 
False

>  <is_beta_aa>  (418) 
True

>  <is_S100_aa>  (418) 
False

>  <Murcko_SMILES>  (418) 
C1CC2CNC[C@H]2CO1

$$$$

     RDKit          2D

 13 14  0  0  0  0  0  0  0  0999 V2000
    1.2990   -5.8573    0.0000 O   0  0  0  0  0  0  0  0  0  0  0  0
   -0.0000   -5.1073    0.0000 C   0  0  0  0  0  0  0  0  0  0  0  0
   -0.0000   -3.6073    0.0000 C   0  0  0  0  0  0  0  0  0  0  0  0
    1.2135   -2.7256    0.0000 C   0  0  0  0  0  0  0  0  0  0  0  0
    0.7500   -1.2990    0.0000 C   0  0  0  0  0  0  0  0  0  0  0  0
    1.5000    0.0000    0.0000 C   0  0  0  0  0  0  0  0  0  0  0  0
    0.7500    1.2990    0.0000 C   0  0  0  0  0  0  0  0  0  0  0  0
   -0.7500    1.2990    0.0000 C   0  0  0  0  0  0  0  0  0  0  0  0
   -1.5000    0.0000    0.0000 C   0  0  0  0  0  0  0  0  0  0  0  0
   -0.7500   -1.2990    0.0000 C   0  0  0  0  0  0  0  0  0  0  0  0
   -1.2135   -2.7256    0.0000 N   0  0  0  0  0  0  0  0  0  0  0  0
   -2.6401   -3.1891    0.0000 R   0  0  0  0  0  1  0  0  0  1  0  0
   -1.2990   -5.8573    0.0000 R   0  0  0  0  0  1  0  0  0  2  0  0
  1  2  2  0
  2  3  1  0
  3  4  1  0
  5  4  1  6
  5  6  1  0
  6  7  1  0
  7  8  1  0
  8  9  1  0
 10  9  1  1
 10 11  1  0
 11 12  1  0
  2 13  1  0
 11  3  1  0
 10  5  1  0
M  END
>  <id>  (419) 
732b8089-e34f-4f42-a7fb-25e307b19ddb

>  <Version>  (419) 
0

>  <Alias>  (419) 
2S3R7S-OIC

>  <Type>  (419) 
amino_acid

>  <Smiles>  (419) 
O=C(C1C[C@H]2CCCC[C@@H]2N1[*:1])[*:2]

>  <ProtectedSmiles>  (419) 
O=C(O)C1C[C@H]2CCCC[C@@H]2N1C(=O)OCC1c2ccccc2-c2ccccc21

>  <CAS>  (419) 
2171245-92-2

>  <User>  (419) 
Sevan.habeshian@orbismedicines.com

>  <StereoComment>  (419) 
as drawn

>  <Name>  (419) 
N/A

>  <Code>  (419) 
2S3R7S-OIC

>  <AliasLowerCase>  (419) 
2s3r7s-oic

>  <LatestVersion>  (419) 
0.0

>  <createdAt>  (419) 
2026-02-13T09:56:35.394Z

>  <updatedAt>  (419) 
2026-02-13T09:56:35.394Z

>  <NumRotatableBonds>  (419) 
1

>  <is_N_methyl>  (419) 
False

>  <is_a_methyl>  (419) 
False

>  <is_alpha_aa>  (419) 
True

>  <is_beta_aa>  (419) 
False

>  <is_S100_aa>  (419) 
False

>  <Murcko_SMILES>  (419) 
C1CC[C@@H]2NCC[C@H]2C1

$$$$

     RDKit          2D

  9  8  0  0  0  0  0  0  0  0999 V2000
    5.1962   -1.5000    0.0000 O   0  0  0  0  0  0  0  0  0  0  0  0
    5.1962   -0.0000    0.0000 C   0  0  0  0  0  0  0  0  0  0  0  0
    3.8971    0.7500    0.0000 C   0  0  0  0  0  0  0  0  0  0  0  0
    2.5981   -0.0000    0.0000 C   0  0  0  0  0  0  0  0  0  0  0  0
    2.5981   -1.5000    0.0000 C   0  0  0  0  0  0  0  0  0  0  0  0
    3.8971   -2.2500    0.0000 O   0  0  0  0  0  0  0  0  0  0  0  0
    1.2990    0.7500    0.0000 N   0  0  0  0  0  0  0  0  0  0  0  0
    0.0000    0.0000    0.0000 R   0  0  0  0  0  1  0  0  0  1  0  0
    6.4952    0.7500    0.0000 R   0  0  0  0  0  1  0  0  0  2  0  0
  1  2  2  0
  2  3  1  0
  4  3  1  1
  4  5  1  0
  5  6  1  0
  4  7  1  0
  7  8  1  0
  2  9  1  0
M  END
>  <id>  (420) 
dbb9833a-a07e-45bd-a9e6-e770d183bb5b

>  <Version>  (420) 
0

>  <Alias>  (420) 
D-B-hSer

>  <Type>  (420) 
amino_acid

>  <Smiles>  (420) 
O=C(C[C@@H](CO)N[*:1])[*:2]

>  <ProtectedSmiles>  (420) 
CC(C)(C)OC[C@H](CC(=O)O)NC(=O)OCC1c2ccccc2-c2ccccc21

>  <CAS>  (420) 
1820583-73-0

>  <User>  (420) 
angelica.l

>  <StereoComment>  (420) 
as drawn

>  <Name>  (420) 
(3S)-4-(tert-butoxy)-3-({[(9H-fluoren-9-yl)methoxy]carbonyl}amino)butanoic acid

>  <Code>  (420) 
D-B-hSer

>  <AliasLowerCase>  (420) 
d-b-hser

>  <LatestVersion>  (420) 
0.0

>  <createdAt>  (420) 
2026-01-14T11:34:29.094Z

>  <updatedAt>  (420) 
2026-01-14T11:34:29.094Z

>  <NumRotatableBonds>  (420) 
4

>  <is_N_methyl>  (420) 
False

>  <is_a_methyl>  (420) 
False

>  <is_alpha_aa>  (420) 
False

>  <is_beta_aa>  (420) 
True

>  <is_S100_aa>  (420) 
False

>  <Murcko_SMILES>  (420) 


$$$$

     RDKit          2D

 17 17  0  0  0  0  0  0  0  0999 V2000
    6.0000    0.0000    0.0000 O   0  0  0  0  0  0  0  0  0  0  0  0
    5.2500   -1.2990    0.0000 C   0  0  0  0  0  0  0  0  0  0  0  0
    3.7500   -1.2990    0.0000 C   0  0  0  0  0  0  0  0  0  0  0  0
    3.0000    0.0000    0.0000 C   0  0  0  0  0  0  0  0  0  0  0  0
    3.7500    1.2990    0.0000 N   0  0  0  0  0  0  0  0  0  0  0  0
    5.2500    1.2990    0.0000 R   0  0  0  0  0  1  0  0  0  1  0  0
    1.5000    0.0000    0.0000 C   0  0  0  0  0  0  0  0  0  0  0  0
    0.7500   -1.2990    0.0000 C   0  0  0  0  0  0  0  0  0  0  0  0
   -0.7500   -1.2990    0.0000 C   0  0  0  0  0  0  0  0  0  0  0  0
   -1.5000    0.0000    0.0000 C   0  0  0  0  0  0  0  0  0  0  0  0
   -0.7500    1.2990    0.0000 C   0  0  0  0  0  0  0  0  0  0  0  0
   -1.5000    2.5981    0.0000 C   0  0  0  0  0  0  0  0  0  0  0  0
   -2.2500    3.8971    0.0000 F   0  0  0  0  0  0  0  0  0  0  0  0
   -0.2010    3.3481    0.0000 F   0  0  0  0  0  0  0  0  0  0  0  0
   -2.7990    1.8481    0.0000 F   0  0  0  0  0  0  0  0  0  0  0  0
    0.7500    1.2990    0.0000 C   0  0  0  0  0  0  0  0  0  0  0  0
    6.0000   -2.5981    0.0000 R   0  0  0  0  0  1  0  0  0  2  0  0
  1  2  2  0
  2  3  1  0
  3  4  1  0
  4  5  1  0
  5  6  1  0
  4  7  1  0
  7  8  2  0
  8  9  1  0
  9 10  2  0
 10 11  1  0
 11 12  1  0
 12 13  1  0
 12 14  1  0
 12 15  1  0
 11 16  2  0
  2 17  1  0
 16  7  1  0
M  END
>  <id>  (421) 
c6e1cda7-7a71-4527-8ac2-4dcca230cf97

>  <Version>  (421) 
0

>  <Alias>  (421) 
rac-m(CF3)3PhPA

>  <Type>  (421) 
amino_acid

>  <Smiles>  (421) 
O=C(CC(N[*:1])c1cccc(C(F)(F)F)c1)[*:2]

>  <ProtectedSmiles>  (421) 
O=C(O)CC(NC(=O)OCC1c2ccccc2-c2ccccc21)c1cccc(C(F)(F)F)c1

>  <CAS>  (421) 
181953-60-6

>  <User>  (421) 
mischa.s

>  <StereoComment>  (421) 
as drawn

>  <Name>  (421) 
3-({[(9H-fluoren-9-yl)methoxy]carbonyl}amino)-3-[3-(trifluoromethyl)phenyl]propanoic acid

>  <Code>  (421) 
rac-m(CF3)3PhPA

>  <AliasLowerCase>  (421) 
rac-m(cf3)3phpa

>  <LatestVersion>  (421) 
0.0

>  <createdAt>  (421) 
2026-01-14T11:32:54.997Z

>  <updatedAt>  (421) 
2026-01-14T11:32:54.997Z

>  <NumRotatableBonds>  (421) 
4

>  <is_N_methyl>  (421) 
False

>  <is_a_methyl>  (421) 
False

>  <is_alpha_aa>  (421) 
False

>  <is_beta_aa>  (421) 
True

>  <is_S100_aa>  (421) 
False

>  <Murcko_SMILES>  (421) 
c1ccccc1

$$$$

     RDKit          2D

 14 14  0  0  0  0  0  0  0  0999 V2000
    3.7500    1.2990    0.0000 O   0  0  0  0  0  0  0  0  0  0  0  0
    3.0000    0.0000    0.0000 C   0  0  0  0  0  0  0  0  0  0  0  0
    1.5000    0.0000    0.0000 C   0  0  0  0  0  0  0  0  0  0  0  0
    0.7500   -1.2990    0.0000 C   0  0  0  0  0  0  0  0  0  0  0  0
   -0.7500   -1.2990    0.0000 C   0  0  0  0  0  0  0  0  0  0  0  0
   -1.5000   -2.5981    0.0000 C   0  0  0  0  0  0  0  0  0  0  0  0
   -2.2500   -3.8971    0.0000 F   0  0  0  0  0  0  0  0  0  0  0  0
   -2.7990   -1.8481    0.0000 F   0  0  0  0  0  0  0  0  0  0  0  0
   -0.2010   -3.3481    0.0000 F   0  0  0  0  0  0  0  0  0  0  0  0
   -1.5000    0.0000    0.0000 C   0  0  0  0  0  0  0  0  0  0  0  0
   -0.7500    1.2990    0.0000 N   0  0  0  0  0  0  0  0  0  0  0  0
   -1.5000    2.5981    0.0000 R   0  0  0  0  0  1  0  0  0  1  0  0
    0.7500    1.2990    0.0000 C   0  0  0  0  0  0  0  0  0  0  0  0
    3.7500   -1.2990    0.0000 R   0  0  0  0  0  1  0  0  0  2  0  0
  1  2  2  0
  2  3  1  0
  3  4  1  0
  4  5  1  0
  5  6  1  0
  6  7  1  0
  6  8  1  0
  6  9  1  0
  5 10  1  0
 10 11  1  0
 11 12  1  0
 11 13  1  0
  2 14  1  0
 13  3  1  0
M  END
>  <id>  (422) 
0fa06f38-04fc-473c-b8e1-e95ccd63281c

>  <Version>  (422) 
0

>  <Alias>  (422) 
rac5-CF3Pip3CA

>  <Type>  (422) 
amino_acid

>  <Smiles>  (422) 
O=C(C1CC(C(F)(F)F)CN([*:1])C1)[*:2]

>  <ProtectedSmiles>  (422) 
O=C(O)C1CC(C(F)(F)F)CN(C(=O)OCC2c3ccccc3-c3ccccc32)C1

>  <CAS>  (422) 
2138337-54-7

>  <User>  (422) 
angelica.l

>  <StereoComment>  (422) 
racemic

>  <Name>  (422) 
1-(9H-fluoren-9-ylmethoxycarbonyl)-5-(trifluoromethyl)piperidine-3-carboxylic acid

>  <Code>  (422) 
rac5-CF3Pip3CA

>  <AliasLowerCase>  (422) 
rac5-cf3pip3ca

>  <LatestVersion>  (422) 
0.0

>  <createdAt>  (422) 
2026-01-14T11:35:25.588Z

>  <updatedAt>  (422) 
2026-01-14T11:35:25.588Z

>  <NumRotatableBonds>  (422) 
1

>  <is_N_methyl>  (422) 
False

>  <is_a_methyl>  (422) 
False

>  <is_alpha_aa>  (422) 
False

>  <is_beta_aa>  (422) 
True

>  <is_S100_aa>  (422) 
False

>  <Murcko_SMILES>  (422) 
C1CCNCC1

$$$$

     RDKit          2D

 16 17  0  0  0  0  0  0  0  0999 V2000
    6.0000    0.0000    0.0000 O   0  0  0  0  0  0  0  0  0  0  0  0
    5.2500   -1.2990    0.0000 C   0  0  0  0  0  0  0  0  0  0  0  0
    3.7500   -1.2990    0.0000 C   0  0  0  0  0  0  0  0  0  0  0  0
    3.0000    0.0000    0.0000 C   0  0  0  0  0  0  0  0  0  0  0  0
    1.5000    0.0000    0.0000 C   0  0  0  0  0  0  0  0  0  0  0  0
    0.7500   -1.2990    0.0000 C   0  0  0  0  0  0  0  0  0  0  0  0
   -0.7500   -1.2990    0.0000 C   0  0  0  0  0  0  0  0  0  0  0  0
   -1.5000    0.0000    0.0000 C   0  0  0  0  0  0  0  0  0  0  0  0
   -3.0000    0.0000    0.0000 C   0  0  0  0  0  0  0  0  0  0  0  0
   -4.2990   -0.7500    0.0000 C   0  0  0  0  0  0  0  0  0  0  0  0
   -4.2990    0.7500    0.0000 C   0  0  0  0  0  0  0  0  0  0  0  0
   -0.7500    1.2990    0.0000 C   0  0  0  0  0  0  0  0  0  0  0  0
    0.7500    1.2990    0.0000 C   0  0  0  0  0  0  0  0  0  0  0  0
    3.0000   -2.5981    0.0000 N   0  0  0  0  0  0  0  0  0  0  0  0
    3.7500   -3.8971    0.0000 R   0  0  0  0  0  1  0  0  0  1  0  0
    6.0000   -2.5981    0.0000 R   0  0  0  0  0  1  0  0  0  2  0  0
  1  2  2  0
  2  3  1  0
  3  4  1  1
  4  5  1  0
  5  6  2  0
  6  7  1  0
  7  8  2  0
  8  9  1  0
  9 10  1  0
 10 11  1  0
  8 12  1  0
 12 13  2  0
  3 14  1  0
 14 15  1  0
  2 16  1  0
 13  5  1  0
 11  9  1  0
M  END
>  <id>  (423) 
daccb14e-1591-4731-84d5-ed29d04966cb

>  <Version>  (423) 
0

>  <Alias>  (423) 
4CpPhe

>  <Type>  (423) 
amino_acid

>  <Smiles>  (423) 
O=C([C@H](Cc1ccc(C2CC2)cc1)N[*:1])[*:2]

>  <ProtectedSmiles>  (423) 
O=C(N[C@@H](Cc1ccc(C2CC2)cc1)C(=O)O)OCC1c2ccccc2-c2ccccc21

>  <CAS>  (423) 
1997389-26-0

>  <User>  (423) 
mischa.s

>  <StereoComment>  (423) 
as drawn

>  <Name>  (423) 
N-Fmoc-4-Cyclopropyl-L-phenylalanine

>  <Code>  (423) 
4CpPhe

>  <AliasLowerCase>  (423) 
4cpphe

>  <LatestVersion>  (423) 
0.0

>  <createdAt>  (423) 
2026-01-14T11:37:33.212Z

>  <updatedAt>  (423) 
2026-01-14T11:37:33.212Z

>  <NumRotatableBonds>  (423) 
5

>  <is_N_methyl>  (423) 
False

>  <is_a_methyl>  (423) 
False

>  <is_alpha_aa>  (423) 
True

>  <is_beta_aa>  (423) 
False

>  <is_S100_aa>  (423) 
False

>  <Murcko_SMILES>  (423) 
c1ccc(C2CC2)cc1

$$$$

     RDKit          2D

 13 14  0  0  0  0  0  0  0  0999 V2000
    2.8776   -0.6964    0.0000 O   0  0  0  0  0  0  0  0  0  0  0  0
    3.0344    0.7954    0.0000 C   0  0  0  0  0  0  0  0  0  0  0  0
    1.8209    1.6771    0.0000 C   0  0  0  0  0  0  0  0  0  0  0  0
    1.8209    3.1771    0.0000 C   0  0  0  0  0  0  0  0  0  0  0  0
    0.3943    3.6406    0.0000 N   0  0  0  0  0  0  0  0  0  0  0  0
   -0.0692    5.0672    0.0000 R   0  0  0  0  0  1  0  0  0  1  0  0
   -0.4874    2.4271    0.0000 C   0  0  0  0  0  0  0  0  0  0  0  0
    0.3943    1.2135    0.0000 C   0  0  0  0  0  0  0  0  0  0  0  0
    1.2760    0.0000    0.0000 C   0  0  0  0  0  0  0  0  0  0  0  0
    0.3943   -1.2135    0.0000 C   0  0  0  0  0  0  0  0  0  0  0  0
   -1.0323   -0.7500    0.0000 C   0  0  0  0  0  0  0  0  0  0  0  0
   -1.0323    0.7500    0.0000 C   0  0  0  0  0  0  0  0  0  0  0  0
    4.4047    1.4055    0.0000 R   0  0  0  0  0  1  0  0  0  2  0  0
  1  2  2  0
  2  3  1  0
  3  4  1  0
  4  5  1  0
  5  6  1  0
  5  7  1  0
  7  8  1  0
  8  9  1  0
  9 10  1  0
 10 11  1  0
 11 12  1  0
  2 13  1  0
  8  3  1  0
 12  8  1  0
M  END
>  <id>  (424) 
77161720-5a5f-4d7b-acaa-462462e6fecf

>  <Version>  (424) 
0

>  <Alias>  (424) 
SpiroNonCA

>  <Type>  (424) 
amino_acid

>  <Smiles>  (424) 
O=C(C1CN([*:1])CC12CCCC2)[*:2]

>  <ProtectedSmiles>  (424) 
O=C(O)C1CN(C(=O)OCC2c3ccccc3-c3ccccc32)CC12CCCC2

>  <CAS>  (424) 
2171973-33-2

>  <User>  (424) 
Sevan.habeshian@orbismedicines.com

>  <StereoComment>  (424) 
as drawn

>  <Name>  (424) 
N/A

>  <Code>  (424) 
SpiroNonCA

>  <AliasLowerCase>  (424) 
spirononca

>  <LatestVersion>  (424) 
0.0

>  <createdAt>  (424) 
2026-02-13T09:56:35.529Z

>  <updatedAt>  (424) 
2026-02-13T09:56:35.529Z

>  <NumRotatableBonds>  (424) 
1

>  <is_N_methyl>  (424) 
False

>  <is_a_methyl>  (424) 
False

>  <is_alpha_aa>  (424) 
False

>  <is_beta_aa>  (424) 
True

>  <is_S100_aa>  (424) 
False

>  <Murcko_SMILES>  (424) 
C1CCC2(C1)CCNC2

$$$$

     RDKit          2D

 13 14  0  0  0  0  0  0  0  0999 V2000
    2.7760   -2.5981    0.0000 O   0  0  0  0  0  0  0  0  0  0  0  0
    3.5260   -1.2990    0.0000 C   0  0  0  0  0  0  0  0  0  0  0  0
    2.7760    0.0000    0.0000 C   0  0  0  0  0  0  0  0  0  0  0  0
    1.2760    0.0000    0.0000 C   0  0  0  0  0  0  0  0  0  0  0  0
    0.3943    1.2135    0.0000 C   0  0  0  0  0  0  0  0  0  0  0  0
   -1.0323    0.7500    0.0000 C   0  0  0  0  0  0  0  0  0  0  0  0
   -1.0323   -0.7500    0.0000 C   0  0  0  0  0  0  0  0  0  0  0  0
    0.3943   -1.2135    0.0000 O   0  0  0  0  0  0  0  0  0  0  0  0
   -1.2669    2.2315    0.0000 C   0  0  0  0  0  0  0  0  0  0  0  0
   -2.7485    1.9969    0.0000 N   0  0  0  0  0  0  0  0  0  0  0  0
   -3.9620    2.8786    0.0000 R   0  0  0  0  0  1  0  0  0  1  0  0
   -2.5138    0.5153    0.0000 C   0  0  0  0  0  0  0  0  0  0  0  0
    5.0260   -1.2990    0.0000 R   0  0  0  0  0  1  0  0  0  2  0  0
  1  2  2  0
  2  3  1  0
  3  4  1  0
  4  5  1  0
  5  6  1  0
  6  7  1  0
  7  8  1  0
  6  9  1  0
  9 10  1  0
 10 11  1  0
 10 12  1  0
  2 13  1  0
  8  4  1  0
 12  6  1  0
M  END
>  <id>  (425) 
d3b6271b-4d7c-4bbe-8598-6f6bba6d29ee

>  <Version>  (425) 
0

>  <Alias>  (425) 
OxaAzaSpirooct

>  <Type>  (425) 
amino_acid

>  <Smiles>  (425) 
O=C(CC1CC2(CO1)CN([*:1])C2)[*:2]

>  <ProtectedSmiles>  (425) 
O=C(O)CC1CC2(CO1)CN(C(=O)OCC1c3ccccc3-c3ccccc31)C2

>  <CAS>  (425) 
2137580-42-6

>  <User>  (425) 
Sevan.habeshian@orbismedicines.com

>  <StereoComment>  (425) 
as drawn

>  <Name>  (425) 
N/A

>  <Code>  (425) 
OxaAzaSpirooct

>  <AliasLowerCase>  (425) 
oxaazaspirooct

>  <LatestVersion>  (425) 
0.0

>  <createdAt>  (425) 
2026-02-13T09:56:36.369Z

>  <updatedAt>  (425) 
2026-02-13T09:56:36.369Z

>  <NumRotatableBonds>  (425) 
2

>  <is_N_methyl>  (425) 
False

>  <is_a_methyl>  (425) 
False

>  <is_alpha_aa>  (425) 
False

>  <is_beta_aa>  (425) 
False

>  <is_S100_aa>  (425) 
False

>  <Murcko_SMILES>  (425) 
C1CC2(CNC2)CO1

$$$$

     RDKit          2D

  9  8  0  0  0  0  0  0  0  0999 V2000
    1.2990   -2.2500    0.0000 O   0  0  0  0  0  0  0  0  0  0  0  0
    2.5981   -1.5000    0.0000 C   0  0  0  0  0  0  0  0  0  0  0  0
    2.5981   -0.0000    0.0000 C   0  0  0  0  0  0  0  0  0  0  0  0
    3.8971    0.7500    0.0000 C   0  0  0  0  0  0  0  0  0  0  0  0
    5.1962   -0.0000    0.0000 C   0  0  0  0  0  0  0  0  0  0  0  0
    6.4952    0.7500    0.0000 O   0  0  0  0  0  0  0  0  0  0  0  0
    1.2990    0.7500    0.0000 N   0  0  0  0  0  0  0  0  0  0  0  0
    0.0000    0.0000    0.0000 R   0  0  0  0  0  1  0  0  0  1  0  0
    3.8971   -2.2500    0.0000 R   0  0  0  0  0  1  0  0  0  2  0  0
  1  2  2  0
  2  3  1  0
  3  4  1  1
  4  5  1  0
  5  6  1  0
  3  7  1  0
  7  8  1  0
  2  9  1  0
M  END
>  <id>  (426) 
1a186213-82ba-454c-9f20-ed0aaaef3584

>  <Version>  (426) 
0

>  <Alias>  (426) 
hSer_UP

>  <Type>  (426) 
amino_acid

>  <Smiles>  (426) 
O=C([C@H](CCO)N[*:1])[*:2]

>  <ProtectedSmiles>  (426) 
O=C(N[C@@H](CCO)C(=O)O)OCC1c2ccccc2-c2ccccc21

>  <CAS>  (426) 
172525-85-8

>  <User>  (426) 
Sevan.habeshian@orbismedicines.com

>  <StereoComment>  (426) 
as drawn

>  <Name>  (426) 
N/A

>  <Code>  (426) 
hSer_UP

>  <AliasLowerCase>  (426) 
hser_up

>  <LatestVersion>  (426) 
0.0

>  <createdAt>  (426) 
2026-02-13T09:56:35.484Z

>  <updatedAt>  (426) 
2026-02-13T09:56:35.484Z

>  <NumRotatableBonds>  (426) 
4

>  <is_N_methyl>  (426) 
False

>  <is_a_methyl>  (426) 
False

>  <is_alpha_aa>  (426) 
True

>  <is_beta_aa>  (426) 
False

>  <is_S100_aa>  (426) 
False

>  <Murcko_SMILES>  (426) 


$$$$

     RDKit          2D

 16 16  0  0  0  0  0  0  0  0999 V2000
    3.5260    1.2990    0.0000 O   0  0  0  0  0  0  0  0  0  0  0  0
    2.7760    0.0000    0.0000 C   0  0  0  0  0  0  0  0  0  0  0  0
    3.5260   -1.2990    0.0000 N   0  0  0  0  0  0  0  0  0  0  0  0
    5.0260   -1.2990    0.0000 C   0  0  0  0  0  0  0  0  0  0  0  0
    5.7760   -2.5981    0.0000 C   0  0  0  0  0  0  0  0  0  0  0  0
    5.0260   -3.8971    0.0000 N   0  0  0  0  0  0  0  0  0  0  0  0
    5.7760   -5.1962    0.0000 R   0  0  0  0  0  1  0  0  0  1  0  0
    7.2760   -2.5981    0.0000 C   0  0  0  0  0  0  0  0  0  0  0  0
    8.0260   -1.2990    0.0000 O   0  0  0  0  0  0  0  0  0  0  0  0
    8.0260   -3.8971    0.0000 R   0  0  0  0  0  1  0  0  0  2  0  0
    1.2760    0.0000    0.0000 C   0  0  0  0  0  0  0  0  0  0  0  0
    0.3943    1.2135    0.0000 C   0  0  0  0  0  0  0  0  0  0  0  0
   -1.0323    0.7500    0.0000 C   0  0  0  0  0  0  0  0  0  0  0  0
   -1.0323   -0.7500    0.0000 C   0  0  0  0  0  0  0  0  0  0  0  0
   -2.2458   -1.6317    0.0000 Cl  0  0  0  0  0  0  0  0  0  0  0  0
    0.3943   -1.2135    0.0000 S   0  0  0  0  0  0  0  0  0  0  0  0
  1  2  2  0
  2  3  1  0
  3  4  1  0
  5  4  1  1
  5  6  1  0
  6  7  1  0
  5  8  1  0
  8  9  2  0
  8 10  1  0
  2 11  1  0
 11 12  2  0
 12 13  1  0
 13 14  2  0
 14 15  1  0
 14 16  1  0
 16 11  1  0
M  END
>  <id>  (427) 
5dd36abb-40d1-43c8-8163-2de8f4d79111

>  <Version>  (427) 
0

>  <Alias>  (427) 
Dap(5ClThphn)

>  <Type>  (427) 
amino_acid

>  <Smiles>  (427) 
O=C(NC[C@H](N[*:1])C(=O)[*:2])c1ccc(Cl)s1

>  <ProtectedSmiles>  (427) 
O=C(N[C@@H](CNC(=O)c1ccc(Cl)s1)C(=O)O)OCC1c2ccccc2-c2ccccc21

>  <CAS>  (427) 
2869870-08-4

>  <User>  (427) 
claire.m

>  <StereoComment>  (427) 
as drawn

>  <Name>  (427) 
(2S)-3-[(5-chlorothiophene-2-carbonyl)amino]-2-(9H-fluoren-9-ylmethoxycarbonylamino)propanoic acid

>  <Code>  (427) 
Dap(5ClThphn)

>  <AliasLowerCase>  (427) 
dap(5clthphn)

>  <LatestVersion>  (427) 
0.0

>  <createdAt>  (427) 
2026-01-14T11:34:03.399Z

>  <updatedAt>  (427) 
2026-01-14T11:34:03.399Z

>  <NumRotatableBonds>  (427) 
5

>  <is_N_methyl>  (427) 
False

>  <is_a_methyl>  (427) 
False

>  <is_alpha_aa>  (427) 
True

>  <is_beta_aa>  (427) 
False

>  <is_S100_aa>  (427) 
False

>  <Murcko_SMILES>  (427) 
c1ccsc1

$$$$

     RDKit          2D

 10  9  0  0  0  0  0  0  0  0999 V2000
    5.1962    3.0000    0.0000 C   0  0  0  0  0  0  0  0  0  0  0  0
    3.8971    2.2500    0.0000 C   0  0  0  0  0  0  0  0  0  0  0  0
    3.8971    0.7500    0.0000 C   0  0  0  0  0  0  0  0  0  0  0  0
    5.1962   -0.0000    0.0000 C   0  0  0  0  0  0  0  0  0  0  0  0
    2.5981   -0.0000    0.0000 C   0  0  0  0  0  0  0  0  0  0  0  0
    1.2990    0.7500    0.0000 N   0  0  0  0  0  0  0  0  0  0  0  0
    0.0000    0.0000    0.0000 R   0  0  0  0  0  1  0  0  0  1  0  0
    2.5981   -1.5000    0.0000 C   0  0  0  0  0  0  0  0  0  0  0  0
    1.2990   -2.2500    0.0000 O   0  0  0  0  0  0  0  0  0  0  0  0
    3.8971   -2.2500    0.0000 R   0  0  0  0  0  1  0  0  0  2  0  0
  1  2  1  0
  2  3  1  0
  3  4  1  6
  3  5  1  0
  5  6  1  6
  6  7  1  0
  5  8  1  0
  8  9  2  0
  8 10  1  0
M  END
>  <id>  (428) 
ddc1b565-a2a0-453f-bf48-21928a4d1d9c

>  <Version>  (428) 
0

>  <Alias>  (428) 
D-allo-Ile

>  <Type>  (428) 
amino_acid

>  <Smiles>  (428) 
CC[C@H](C)[C@@H](N[*:1])C(=O)[*:2]

>  <ProtectedSmiles>  (428) 
CC[C@H](C)[C@@H](NC(=O)OCC1c2ccccc2-c2ccccc21)C(=O)O

>  <CAS>  (428) 
118904-37-3

>  <User>  (428) 
sevan.h

>  <StereoComment>  (428) 
as drawn

>  <Name>  (428) 
Fmoc-D-Allo-Ile-OH

>  <Code>  (428) 
D-allo-Ile

>  <AliasLowerCase>  (428) 
d-allo-ile

>  <LatestVersion>  (428) 
0.0

>  <createdAt>  (428) 
2026-01-14T12:15:42.828Z

>  <updatedAt>  (428) 
2026-01-14T12:15:42.828Z

>  <NumRotatableBonds>  (428) 
4

>  <is_N_methyl>  (428) 
False

>  <is_a_methyl>  (428) 
False

>  <is_alpha_aa>  (428) 
True

>  <is_beta_aa>  (428) 
False

>  <is_S100_aa>  (428) 
False

>  <Murcko_SMILES>  (428) 


$$$$

     RDKit          2D

 11 12  0  0  0  0  0  0  0  0999 V2000
    3.3107    1.2990    0.0000 O   0  0  0  0  0  0  0  0  0  0  0  0
    2.5607    0.0000    0.0000 C   0  0  0  0  0  0  0  0  0  0  0  0
    1.0607    0.0000    0.0000 C   0  0  0  0  0  0  0  0  0  0  0  0
   -0.0000   -1.0607    0.0000 C   0  0  0  0  0  0  0  0  0  0  0  0
   -1.0607    0.0000    0.0000 C   0  0  0  0  0  0  0  0  0  0  0  0
    0.0000    1.0607    0.0000 C   0  0  0  0  0  0  0  0  0  0  0  0
   -2.1213    1.0607    0.0000 C   0  0  0  0  0  0  0  0  0  0  0  0
   -3.1820    0.0000    0.0000 N   0  0  0  0  0  0  0  0  0  0  0  0
   -4.6820   -0.0000    0.0000 R   0  0  0  0  0  1  0  0  0  1  0  0
   -2.1213   -1.0607    0.0000 C   0  0  0  0  0  0  0  0  0  0  0  0
    3.3107   -1.2990    0.0000 R   0  0  0  0  0  1  0  0  0  2  0  0
  1  2  2  0
  2  3  1  0
  3  4  1  0
  4  5  1  0
  5  6  1  0
  5  7  1  0
  7  8  1  0
  8  9  1  0
  8 10  1  0
  2 11  1  0
  6  3  1  0
 10  5  1  0
M  END
>  <id>  (429) 
3a63ec93-cd25-4d8d-ba77-3a1d77087af4

>  <Version>  (429) 
0

>  <Alias>  (429) 
SpiroHep

>  <Type>  (429) 
amino_acid

>  <Smiles>  (429) 
O=C(C1CC2(C1)CN([*:1])C2)[*:2]

>  <ProtectedSmiles>  (429) 
O=C(O)C1CC2(C1)CN(C(=O)OCC1c3ccccc3-c3ccccc31)C2

>  <CAS>  (429) 
2138525-84-3

>  <User>  (429) 
sevan.h

>  <StereoComment>  (429) 
as drawn

>  <Name>  (429) 
Fmoc-2-azaspiro[3.3]heptane-2,6-dicarboxylate

>  <Code>  (429) 
SpiroHep

>  <AliasLowerCase>  (429) 
spirohep

>  <LatestVersion>  (429) 
0.0

>  <createdAt>  (429) 
2026-01-14T11:38:33.359Z

>  <updatedAt>  (429) 
2026-01-14T11:38:33.359Z

>  <NumRotatableBonds>  (429) 
1

>  <is_N_methyl>  (429) 
False

>  <is_a_methyl>  (429) 
False

>  <is_alpha_aa>  (429) 
False

>  <is_beta_aa>  (429) 
False

>  <is_S100_aa>  (429) 
False

>  <Murcko_SMILES>  (429) 
C1CC2(C1)CNC2

$$$$

     RDKit          2D

 15 15  0  0  0  0  0  0  0  0999 V2000
    4.5000    0.0000    0.0000 N   0  0  0  0  0  0  0  0  0  0  0  0
    3.0000    0.0000    0.0000 C   0  0  0  0  0  0  0  0  0  0  0  0
    1.5000    0.0000    0.0000 C   0  0  0  0  0  0  0  0  0  0  0  0
    0.7500   -1.2990    0.0000 C   0  0  0  0  0  0  0  0  0  0  0  0
   -0.7500   -1.2990    0.0000 C   0  0  0  0  0  0  0  0  0  0  0  0
   -1.5000    0.0000    0.0000 C   0  0  0  0  0  0  0  0  0  0  0  0
   -0.7500    1.2990    0.0000 C   0  0  0  0  0  0  0  0  0  0  0  0
   -1.5000    2.5981    0.0000 C   0  0  0  0  0  0  0  0  0  0  0  0
   -0.7500    3.8971    0.0000 C   0  0  0  0  0  0  0  0  0  0  0  0
    0.7500    3.8971    0.0000 N   0  0  0  0  0  0  0  0  0  0  0  0
    1.5000    5.1962    0.0000 R   0  0  0  0  0  1  0  0  0  1  0  0
   -1.5000    5.1962    0.0000 C   0  0  0  0  0  0  0  0  0  0  0  0
   -3.0000    5.1962    0.0000 O   0  0  0  0  0  0  0  0  0  0  0  0
   -0.7500    6.4952    0.0000 R   0  0  0  0  0  1  0  0  0  2  0  0
    0.7500    1.2990    0.0000 C   0  0  0  0  0  0  0  0  0  0  0  0
  1  2  3  0
  2  3  1  0
  3  4  2  0
  4  5  1  0
  5  6  2  0
  6  7  1  0
  7  8  1  0
  9  8  1  6
  9 10  1  0
 10 11  1  0
  9 12  1  0
 12 13  2  0
 12 14  1  0
  7 15  2  0
 15  3  1  0
M  END
>  <id>  (430) 
4b377a71-7770-48aa-bbe2-8a463eae4ebc

>  <Version>  (430) 
0

>  <Alias>  (430) 
D-3CNPhe

>  <Type>  (430) 
amino_acid

>  <Smiles>  (430) 
N#Cc1cccc(C[C@@H](N[*:1])C(=O)[*:2])c1

>  <ProtectedSmiles>  (430) 
N#Cc1cccc(C[C@@H](NC(=O)OCC2c3ccccc3-c3ccccc32)C(=O)O)c1

>  <CAS>  (430) 
205526-37-0

>  <User>  (430) 
angelica.l

>  <StereoComment>  (430) 
as drawn

>  <Name>  (430) 
Fmoc-D-3-cyanophenylalanine

>  <Code>  (430) 
D-3CNPhe

>  <AliasLowerCase>  (430) 
d-3cnphe

>  <LatestVersion>  (430) 
0.0

>  <createdAt>  (430) 
2026-01-14T11:36:07.053Z

>  <updatedAt>  (430) 
2026-01-14T11:36:07.053Z

>  <NumRotatableBonds>  (430) 
4

>  <is_N_methyl>  (430) 
False

>  <is_a_methyl>  (430) 
False

>  <is_alpha_aa>  (430) 
True

>  <is_beta_aa>  (430) 
False

>  <is_S100_aa>  (430) 
False

>  <Murcko_SMILES>  (430) 
c1ccccc1

$$$$

     RDKit          2D

 15 15  0  0  0  0  0  0  0  0999 V2000
    1.5000   -5.1962    0.0000 O   0  0  0  0  0  0  0  0  0  0  0  0
    3.0000   -5.1962    0.0000 C   0  0  0  0  0  0  0  0  0  0  0  0
    3.7500   -3.8971    0.0000 C   0  0  0  0  0  0  0  0  0  0  0  0
    3.0000   -2.5981    0.0000 C   0  0  0  0  0  0  0  0  0  0  0  0
    3.7500   -1.2990    0.0000 N   0  0  0  0  0  0  0  0  0  0  0  0
    3.0000    0.0000    0.0000 C   0  0  0  0  0  0  0  0  0  0  0  0
    1.5000    0.0000    0.0000 C   0  0  0  0  0  0  0  0  0  0  0  0
    0.7500   -1.2990    0.0000 C   0  0  0  0  0  0  0  0  0  0  0  0
   -0.7500   -1.2990    0.0000 C   0  0  0  0  0  0  0  0  0  0  0  0
   -1.5000    0.0000    0.0000 C   0  0  0  0  0  0  0  0  0  0  0  0
   -3.0000    0.0000    0.0000 F   0  0  0  0  0  0  0  0  0  0  0  0
   -0.7500    1.2990    0.0000 C   0  0  0  0  0  0  0  0  0  0  0  0
    0.7500    1.2990    0.0000 C   0  0  0  0  0  0  0  0  0  0  0  0
    5.2500   -1.2990    0.0000 R   0  0  0  0  0  1  0  0  0  1  0  0
    3.7500   -6.4952    0.0000 R   0  0  0  0  0  1  0  0  0  2  0  0
  1  2  2  0
  2  3  1  0
  3  4  1  0
  4  5  1  0
  5  6  1  0
  6  7  1  0
  7  8  2  0
  8  9  1  0
  9 10  2  0
 10 11  1  0
 10 12  1  0
 12 13  2  0
  5 14  1  0
  2 15  1  0
 13  7  1  0
M  END
>  <id>  (431) 
f9612b3f-8b84-41ce-bbf4-d9dc14c317e2

>  <Version>  (431) 
0

>  <Alias>  (431) 
N-(4Bn)B-Ala

>  <Type>  (431) 
amino_acid

>  <Smiles>  (431) 
O=C(CCN(Cc1ccc(F)cc1)[*:1])[*:2]

>  <ProtectedSmiles>  (431) 
O=C(O)CCN(Cc1ccc(F)cc1)C(=O)OCC1c2ccccc2-c2ccccc21

>  <CAS>  (431) 
2137695-93-1

>  <User>  (431) 
Sevan.habeshian@orbismedicines.com

>  <StereoComment>  (431) 
as drawn

>  <Name>  (431) 
N/A

>  <Code>  (431) 
N-(4Bn)B-Ala

>  <AliasLowerCase>  (431) 
n-(4bn)b-ala

>  <LatestVersion>  (431) 
0.0

>  <createdAt>  (431) 
2026-02-13T09:56:35.525Z

>  <updatedAt>  (431) 
2026-02-13T09:56:35.525Z

>  <NumRotatableBonds>  (431) 
5

>  <is_N_methyl>  (431) 
False

>  <is_a_methyl>  (431) 
False

>  <is_alpha_aa>  (431) 
False

>  <is_beta_aa>  (431) 
True

>  <is_S100_aa>  (431) 
False

>  <Murcko_SMILES>  (431) 
c1ccccc1

$$$$

     RDKit          2D

 10 10  0  0  0  0  0  0  0  0999 V2000
    2.7760   -2.5981    0.0000 O   0  0  0  0  0  0  0  0  0  0  0  0
    3.5260   -1.2990    0.0000 C   0  0  0  0  0  0  0  0  0  0  0  0
    2.7760    0.0000    0.0000 C   0  0  0  0  0  0  0  0  0  0  0  0
    1.2760    0.0000    0.0000 C   0  0  0  0  0  0  0  0  0  0  0  0
    0.3943    1.2135    0.0000 C   0  0  0  0  0  0  0  0  0  0  0  0
   -1.0323    0.7500    0.0000 C   0  0  0  0  0  0  0  0  0  0  0  0
   -1.0323   -0.7500    0.0000 C   0  0  0  0  0  0  0  0  0  0  0  0
    0.3943   -1.2135    0.0000 N   0  0  0  0  0  0  0  0  0  0  0  0
    0.8578   -2.6401    0.0000 R   0  0  0  0  0  1  0  0  0  1  0  0
    5.0260   -1.2990    0.0000 R   0  0  0  0  0  1  0  0  0  2  0  0
  1  2  2  0
  2  3  1  0
  4  3  1  6
  4  5  1  0
  5  6  1  0
  6  7  1  0
  7  8  1  0
  8  9  1  0
  2 10  1  0
  8  4  1  0
M  END
>  <id>  (432) 
fc0c8b3a-ba17-4637-9a45-d8923ad70706

>  <Version>  (432) 
0

>  <Alias>  (432) 
D-B-hPro

>  <Type>  (432) 
amino_acid

>  <Smiles>  (432) 
O=C(C[C@H]1CCCN1[*:1])[*:2]

>  <ProtectedSmiles>  (432) 
O=C(O)C[C@H]1CCCN1C(=O)OCC1c2ccccc2-c2ccccc21

>  <CAS>  (432) 
193693-61-7

>  <User>  (432) 
sevan.h

>  <StereoComment>  (432) 
as drawn

>  <Name>  (432) 
Fmoc-D-beta-homoproline

>  <Code>  (432) 
D-B-hPro

>  <AliasLowerCase>  (432) 
d-b-hpro

>  <LatestVersion>  (432) 
0.0

>  <createdAt>  (432) 
2026-01-14T12:16:03.309Z

>  <updatedAt>  (432) 
2026-01-14T12:16:03.309Z

>  <NumRotatableBonds>  (432) 
2

>  <is_N_methyl>  (432) 
False

>  <is_a_methyl>  (432) 
False

>  <is_alpha_aa>  (432) 
False

>  <is_beta_aa>  (432) 
True

>  <is_S100_aa>  (432) 
False

>  <Murcko_SMILES>  (432) 
C1CCNC1

$$$$

     RDKit          2D

 11 11  0  0  0  0  0  0  0  0999 V2000
    3.9786    1.2990    0.0000 O   0  0  0  0  0  0  0  0  0  0  0  0
    3.2286   -0.0000    0.0000 C   0  0  0  0  0  0  0  0  0  0  0  0
    1.7286    0.0000    0.0000 C   0  0  0  0  0  0  0  0  0  0  0  0
    1.0777    1.3515    0.0000 C   0  0  0  0  0  0  0  0  0  0  0  0
   -0.3846    1.6852    0.0000 C   0  0  0  0  0  0  0  0  0  0  0  0
   -1.5574    0.7500    0.0000 C   0  0  0  0  0  0  0  0  0  0  0  0
   -1.5574   -0.7500    0.0000 C   0  0  0  0  0  0  0  0  0  0  0  0
   -0.3846   -1.6852    0.0000 N   0  0  0  0  0  0  0  0  0  0  0  0
   -0.7184   -3.1476    0.0000 R   0  0  0  0  0  1  0  0  0  1  0  0
    1.0777   -1.3515    0.0000 C   0  0  0  0  0  0  0  0  0  0  0  0
    3.9786   -1.2990    0.0000 R   0  0  0  0  0  1  0  0  0  2  0  0
  1  2  2  0
  2  3  1  0
  3  4  1  0
  4  5  1  0
  5  6  1  0
  6  7  1  0
  7  8  1  0
  8  9  1  0
  8 10  1  0
  2 11  1  0
 10  3  1  0
M  END
>  <id>  (433) 
84ec5591-cb7f-494c-abf0-c81f33474da5

>  <Version>  (433) 
0

>  <Alias>  (433) 
rac-3Azep

>  <Type>  (433) 
amino_acid

>  <Smiles>  (433) 
O=C(C1CCCCN([*:1])C1)[*:2]

>  <ProtectedSmiles>  (433) 
O=C(O)C1CCCCN(C(=O)OCC2c3ccccc3-c3ccccc32)C1

>  <CAS>  (433) 
2138526-02-8

>  <User>  (433) 
Sevan.habeshian@orbismedicines.com

>  <StereoComment>  (433) 
as drawn

>  <Name>  (433) 
N/A

>  <Code>  (433) 
rac-3Azep

>  <AliasLowerCase>  (433) 
rac-3azep

>  <LatestVersion>  (433) 
0.0

>  <createdAt>  (433) 
2026-02-13T09:56:36.367Z

>  <updatedAt>  (433) 
2026-02-13T09:56:36.367Z

>  <NumRotatableBonds>  (433) 
1

>  <is_N_methyl>  (433) 
False

>  <is_a_methyl>  (433) 
False

>  <is_alpha_aa>  (433) 
False

>  <is_beta_aa>  (433) 
True

>  <is_S100_aa>  (433) 
False

>  <Murcko_SMILES>  (433) 
C1CCCNCC1

$$$$

     RDKit          2D

 11 11  0  0  0  0  0  0  0  0999 V2000
    3.7500    1.2990    0.0000 O   0  0  0  0  0  0  0  0  0  0  0  0
    3.0000    0.0000    0.0000 C   0  0  0  0  0  0  0  0  0  0  0  0
    1.5000    0.0000    0.0000 C   0  0  0  0  0  0  0  0  0  0  0  0
    0.7500   -1.2990    0.0000 C   0  0  0  0  0  0  0  0  0  0  0  0
   -0.7500   -1.2990    0.0000 C   0  0  0  0  0  0  0  0  0  0  0  0
   -1.5000    0.0000    0.0000 C   0  0  0  0  0  0  0  0  0  0  0  0
   -0.7500    1.2990    0.0000 C   0  0  0  0  0  0  0  0  0  0  0  0
   -1.5000    2.5981    0.0000 N   0  0  0  0  0  0  0  0  0  0  0  0
   -0.7500    3.8971    0.0000 R   0  0  0  0  0  1  0  0  0  1  0  0
    0.7500    1.2990    0.0000 C   0  0  0  0  0  0  0  0  0  0  0  0
    3.7500   -1.2990    0.0000 R   0  0  0  0  0  1  0  0  0  2  0  0
  1  2  2  0
  2  3  1  0
  3  4  2  0
  4  5  1  0
  5  6  2  0
  6  7  1  0
  7  8  1  0
  8  9  1  0
  7 10  2  0
  2 11  1  0
 10  3  1  0
M  END
>  <id>  (434) 
2422acee-b3b2-4c6f-bbec-1c9b32ff4c28

>  <Version>  (434) 
0

>  <Alias>  (434) 
3Abz

>  <Type>  (434) 
amino_acid

>  <Smiles>  (434) 
O=C(c1cccc(N[*:1])c1)[*:2]

>  <ProtectedSmiles>  (434) 
O=C(Nc1cccc(C(=O)O)c1)OCC1c2ccccc2-c2ccccc21

>  <CAS>  (434) 
185116-42-1

>  <User>  (434) 
sevan.h

>  <StereoComment>  (434) 
as drawn

>  <Name>  (434) 
Fmoc-3-aminobenzoic acid

>  <Code>  (434) 
3Abz

>  <AliasLowerCase>  (434) 
3abz

>  <LatestVersion>  (434) 
0.0

>  <createdAt>  (434) 
2026-01-14T12:17:02.993Z

>  <updatedAt>  (434) 
2026-01-14T12:17:02.993Z

>  <NumRotatableBonds>  (434) 
2

>  <is_N_methyl>  (434) 
False

>  <is_a_methyl>  (434) 
False

>  <is_alpha_aa>  (434) 
False

>  <is_beta_aa>  (434) 
False

>  <is_S100_aa>  (434) 
False

>  <Murcko_SMILES>  (434) 
c1ccccc1

$$$$

     RDKit          2D

  8  7  0  0  0  0  0  0  0  0999 V2000
    5.1962   -0.0000    0.0000 C   0  0  0  0  0  0  0  0  0  0  0  0
    3.8971    0.7500    0.0000 C   0  0  0  0  0  0  0  0  0  0  0  0
    2.5981   -0.0000    0.0000 C   0  0  0  0  0  0  0  0  0  0  0  0
    1.2990    0.7500    0.0000 N   0  0  0  0  0  0  0  0  0  0  0  0
    0.0000    0.0000    0.0000 R   0  0  0  0  0  1  0  0  0  1  0  0
    3.8971    2.2500    0.0000 C   0  0  0  0  0  0  0  0  0  0  0  0
    2.5981    3.0000    0.0000 O   0  0  0  0  0  0  0  0  0  0  0  0
    5.1962    3.0000    0.0000 R   0  0  0  0  0  1  0  0  0  2  0  0
  2  1  1  1
  2  3  1  0
  3  4  1  0
  4  5  1  0
  2  6  1  0
  6  7  2  0
  6  8  1  0
M  END
>  <id>  (435) 
3642af7a-993f-4cf1-ab46-c3b70d2a9bdf

>  <Version>  (435) 
0

>  <Alias>  (435) 
(3S)AiBA

>  <Type>  (435) 
amino_acid

>  <Smiles>  (435) 
C[C@@H](CN[*:1])C(=O)[*:2]

>  <ProtectedSmiles>  (435) 
C[C@@H](CNC(=O)OCC1c2ccccc2-c2ccccc21)C(=O)O

>  <CAS>  (435) 
203854-58-4

>  <User>  (435) 
mischa.s

>  <StereoComment>  (435) 
as drawn

>  <Name>  (435) 
Fmoc-(S)-3-aminoisobutyric acid

>  <Code>  (435) 
(3S)AiBA

>  <AliasLowerCase>  (435) 
(3s)aiba

>  <LatestVersion>  (435) 
0.0

>  <createdAt>  (435) 
2026-01-14T11:36:36.601Z

>  <updatedAt>  (435) 
2026-01-14T11:36:36.601Z

>  <NumRotatableBonds>  (435) 
3

>  <is_N_methyl>  (435) 
False

>  <is_a_methyl>  (435) 
False

>  <is_alpha_aa>  (435) 
False

>  <is_beta_aa>  (435) 
True

>  <is_S100_aa>  (435) 
False

>  <Murcko_SMILES>  (435) 


$$$$

     RDKit          2D

 10 10  0  0  0  0  0  0  0  0999 V2000
    3.7500    1.2990    0.0000 O   0  0  0  0  0  0  0  0  0  0  0  0
    3.0000    0.0000    0.0000 C   0  0  0  0  0  0  0  0  0  0  0  0
    1.5000    0.0000    0.0000 C   0  0  0  0  0  0  0  0  0  0  0  0
    0.7500   -1.2990    0.0000 C   0  0  0  0  0  0  0  0  0  0  0  0
   -0.7500   -1.2990    0.0000 C   0  0  0  0  0  0  0  0  0  0  0  0
   -1.5000    0.0000    0.0000 C   0  0  0  0  0  0  0  0  0  0  0  0
   -0.7500    1.2990    0.0000 N   0  0  0  0  0  0  0  0  0  0  0  0
   -1.5000    2.5981    0.0000 R   0  0  0  0  0  1  0  0  0  1  0  0
    0.7500    1.2990    0.0000 C   0  0  0  0  0  0  0  0  0  0  0  0
    3.7500   -1.2990    0.0000 R   0  0  0  0  0  1  0  0  0  2  0  0
  1  2  2  0
  2  3  1  0
  3  4  1  0
  4  5  1  0
  5  6  1  0
  6  7  1  0
  7  8  1  0
  7  9  1  0
  2 10  1  0
  9  3  1  0
M  END
>  <id>  (436) 
8fe6f259-117c-476a-9284-e5446e5f4d2c

>  <Version>  (436) 
0

>  <Alias>  (436) 
racNip

>  <Type>  (436) 
amino_acid

>  <Smiles>  (436) 
O=C(C1CCCN([*:1])C1)[*:2]

>  <ProtectedSmiles>  (436) 
O=C(O)C1CCCN(C(=O)OCC2c3ccccc3-c3ccccc32)C1

>  <CAS>  (436) 
158922-07-7

>  <User>  (436) 
mischa.s

>  <StereoComment>  (436) 
as drawn

>  <Name>  (436) 
1-(9H-fluoren-9-ylmethoxycarbonyl)piperidine-3-carboxylic acid

>  <Code>  (436) 
racNip

>  <AliasLowerCase>  (436) 
racnip

>  <LatestVersion>  (436) 
0.0

>  <createdAt>  (436) 
2026-01-14T11:37:35.626Z

>  <updatedAt>  (436) 
2026-01-14T11:37:35.626Z

>  <NumRotatableBonds>  (436) 
1

>  <is_N_methyl>  (436) 
False

>  <is_a_methyl>  (436) 
False

>  <is_alpha_aa>  (436) 
False

>  <is_beta_aa>  (436) 
True

>  <is_S100_aa>  (436) 
False

>  <Murcko_SMILES>  (436) 
C1CCNCC1

$$$$

     RDKit          2D

  9  9  0  0  0  0  0  0  0  0999 V2000
    3.3074   -0.8886    0.0000 O   0  0  0  0  0  0  0  0  0  0  0  0
    1.8302   -1.1491    0.0000 C   0  0  0  0  0  0  0  0  0  0  0  0
    0.8660    0.0000    0.0000 C   0  0  0  0  0  0  0  0  0  0  0  0
    1.8302    1.1491    0.0000 C   0  0  0  0  0  0  0  0  0  0  0  0
    3.3074    0.8886    0.0000 N   0  0  0  0  0  0  0  0  0  0  0  0
    4.2716    2.0377    0.0000 R   0  0  0  0  0  1  0  0  0  1  0  0
   -0.4330    0.7500    0.0000 C   0  0  0  0  0  0  0  0  0  0  0  0
   -0.4330   -0.7500    0.0000 C   0  0  0  0  0  0  0  0  0  0  0  0
    1.3172   -2.5586    0.0000 R   0  0  0  0  0  1  0  0  0  2  0  0
  1  2  2  0
  2  3  1  0
  3  4  1  0
  4  5  1  0
  5  6  1  0
  3  7  1  0
  7  8  1  0
  2  9  1  0
  8  3  1  0
M  END
>  <id>  (437) 
bda6c939-3353-4f35-ad70-651331ff0a08

>  <Version>  (437) 
0

>  <Alias>  (437) 
Amcpc

>  <Type>  (437) 
amino_acid

>  <Smiles>  (437) 
O=C(C1(CN[*:1])CC1)[*:2]

>  <ProtectedSmiles>  (437) 
O=C(NCC1(C(=O)O)CC1)OCC1c2ccccc2-c2ccccc21

>  <CAS>  (437) 
1263045-62-0

>  <User>  (437) 
Sevan.habeshian@orbismedicines.com

>  <StereoComment>  (437) 
as drawn

>  <Name>  (437) 
N/A

>  <Code>  (437) 
Amcpc

>  <AliasLowerCase>  (437) 
amcpc

>  <LatestVersion>  (437) 
0.0

>  <createdAt>  (437) 
2026-02-13T09:56:35.395Z

>  <updatedAt>  (437) 
2026-02-13T09:56:35.395Z

>  <NumRotatableBonds>  (437) 
3

>  <is_N_methyl>  (437) 
False

>  <is_a_methyl>  (437) 
False

>  <is_alpha_aa>  (437) 
False

>  <is_beta_aa>  (437) 
True

>  <is_S100_aa>  (437) 
False

>  <Murcko_SMILES>  (437) 
C1CC1

$$$$

     RDKit          2D

 11 11  0  0  0  0  0  0  0  0999 V2000
    3.0000   -2.5981    0.0000 O   0  0  0  0  0  0  0  0  0  0  0  0
    3.7500   -1.2990    0.0000 C   0  0  0  0  0  0  0  0  0  0  0  0
    3.0000    0.0000    0.0000 C   0  0  0  0  0  0  0  0  0  0  0  0
    1.5000    0.0000    0.0000 C   0  0  0  0  0  0  0  0  0  0  0  0
    0.7500   -1.2990    0.0000 C   0  0  0  0  0  0  0  0  0  0  0  0
   -0.7500   -1.2990    0.0000 O   0  0  0  0  0  0  0  0  0  0  0  0
   -1.5000    0.0000    0.0000 C   0  0  0  0  0  0  0  0  0  0  0  0
   -0.7500    1.2990    0.0000 C   0  0  0  0  0  0  0  0  0  0  0  0
    0.7500    1.2990    0.0000 N   0  0  0  0  0  0  0  0  0  0  0  0
    1.5000    2.5981    0.0000 R   0  0  0  0  0  1  0  0  0  1  0  0
    5.2500   -1.2990    0.0000 R   0  0  0  0  0  1  0  0  0  2  0  0
  1  2  2  0
  2  3  1  0
  3  4  1  0
  4  5  1  0
  5  6  1  0
  6  7  1  0
  7  8  1  0
  8  9  1  0
  9 10  1  0
  2 11  1  0
  9  4  1  0
M  END
>  <id>  (438) 
194f5c52-5721-4833-9944-6fcf32723060

>  <Version>  (438) 
0

>  <Alias>  (438) 
(3-Morph)Ac

>  <Type>  (438) 
amino_acid

>  <Smiles>  (438) 
O=C(CC1COCCN1[*:1])[*:2]

>  <ProtectedSmiles>  (438) 
O=C(O)CC1COCCN1C(=O)OCC1c2ccccc2-c2ccccc21

>  <CAS>  (438) 
885273-95-0

>  <User>  (438) 
Sevan.habeshian@orbismedicines.com

>  <StereoComment>  (438) 
as drawn

>  <Name>  (438) 
N/A

>  <Code>  (438) 
(3-Morph)Ac

>  <AliasLowerCase>  (438) 
(3-morph)ac

>  <LatestVersion>  (438) 
0.0

>  <createdAt>  (438) 
2026-02-13T09:56:35.506Z

>  <updatedAt>  (438) 
2026-02-13T09:56:35.506Z

>  <NumRotatableBonds>  (438) 
2

>  <is_N_methyl>  (438) 
False

>  <is_a_methyl>  (438) 
False

>  <is_alpha_aa>  (438) 
False

>  <is_beta_aa>  (438) 
True

>  <is_S100_aa>  (438) 
False

>  <Murcko_SMILES>  (438) 
C1COCCN1

$$$$

     RDKit          2D

 11 11  0  0  0  0  0  0  0  0999 V2000
    5.7760    0.0000    0.0000 O   0  0  0  0  0  0  0  0  0  0  0  0
    5.0260   -1.2990    0.0000 C   0  0  0  0  0  0  0  0  0  0  0  0
    3.5260   -1.2990    0.0000 C   0  0  0  0  0  0  0  0  0  0  0  0
    2.7760    0.0000    0.0000 C   0  0  0  0  0  0  0  0  0  0  0  0
    1.2760    0.0000    0.0000 C   0  0  0  0  0  0  0  0  0  0  0  0
    0.3943    1.2135    0.0000 C   0  0  0  0  0  0  0  0  0  0  0  0
   -1.0323    0.7500    0.0000 C   0  0  0  0  0  0  0  0  0  0  0  0
   -1.0323   -0.7500    0.0000 N   0  0  0  0  0  0  0  0  0  0  0  0
   -2.2458   -1.6317    0.0000 R   0  0  0  0  0  1  0  0  0  1  0  0
    0.3943   -1.2135    0.0000 C   0  0  0  0  0  0  0  0  0  0  0  0
    5.7760   -2.5981    0.0000 R   0  0  0  0  0  1  0  0  0  2  0  0
  1  2  2  0
  2  3  1  0
  3  4  1  0
  4  5  1  0
  5  6  1  0
  6  7  1  0
  7  8  1  0
  8  9  1  0
  8 10  1  0
  2 11  1  0
 10  5  1  0
M  END
>  <id>  (439) 
e0f3cb5e-53c6-4314-847e-002ca8752ddc

>  <Version>  (439) 
0

>  <Alias>  (439) 
PyrrPropOH

>  <Type>  (439) 
amino_acid

>  <Smiles>  (439) 
O=C(CCC1CCN([*:1])C1)[*:2]

>  <ProtectedSmiles>  (439) 
O=C(O)CCC1CCN(C(=O)OCC2c3ccccc3-c3ccccc32)C1

>  <CAS>  (439) 
1537722-39-6

>  <User>  (439) 
Sevan.habeshian@orbismedicines.com

>  <StereoComment>  (439) 
as drawn

>  <Name>  (439) 
N/A

>  <Code>  (439) 
PyrrPropOH

>  <AliasLowerCase>  (439) 
pyrrpropoh

>  <LatestVersion>  (439) 
0.0

>  <createdAt>  (439) 
2026-02-13T09:56:35.482Z

>  <updatedAt>  (439) 
2026-02-13T09:56:35.482Z

>  <NumRotatableBonds>  (439) 
3

>  <is_N_methyl>  (439) 
False

>  <is_a_methyl>  (439) 
False

>  <is_alpha_aa>  (439) 
False

>  <is_beta_aa>  (439) 
False

>  <is_S100_aa>  (439) 
False

>  <Murcko_SMILES>  (439) 
C1CCNC1

$$$$

     RDKit          2D

 12 13  0  0  0  0  0  0  0  0999 V2000
   -2.9630    4.9155    0.0000 O   0  0  0  0  0  0  0  0  0  0  0  0
   -1.4958    4.6036    0.0000 C   0  0  0  0  0  0  0  0  0  0  0  0
   -1.0323    3.1771    0.0000 C   0  0  0  0  0  0  0  0  0  0  0  0
    0.3943    2.7135    0.0000 C   0  0  0  0  0  0  0  0  0  0  0  0
    0.3943    1.2135    0.0000 C   0  0  0  0  0  0  0  0  0  0  0  0
    1.2760    0.0000    0.0000 C   0  0  0  0  0  0  0  0  0  0  0  0
    0.3943   -1.2135    0.0000 C   0  0  0  0  0  0  0  0  0  0  0  0
   -1.0323   -0.7500    0.0000 C   0  0  0  0  0  0  0  0  0  0  0  0
   -1.0323    0.7500    0.0000 C   0  0  0  0  0  0  0  0  0  0  0  0
   -1.9140    1.9635    0.0000 N   0  0  0  0  0  0  0  0  0  0  0  0
   -3.4140    1.9635    0.0000 R   0  0  0  0  0  1  0  0  0  1  0  0
   -0.4921    5.7184    0.0000 R   0  0  0  0  0  1  0  0  0  2  0  0
  1  2  2  0
  3  2  1  6
  3  4  1  0
  5  4  1  6
  5  6  1  0
  6  7  1  0
  7  8  1  0
  9  8  1  6
  9 10  1  0
 10 11  1  0
  2 12  1  0
 10  3  1  0
  9  5  1  0
M  END
>  <id>  (440) 
538d1e09-e247-4812-bf34-73d25c88c40d

>  <Version>  (440) 
0

>  <Alias>  (440) 
cPentPyrrole

>  <Type>  (440) 
amino_acid

>  <Smiles>  (440) 
O=C([C@@H]1C[C@@H]2CCC[C@@H]2N1[*:1])[*:2]

>  <ProtectedSmiles>  (440) 
O=C(O)[C@@H]1C[C@@H]2CCC[C@@H]2N1C(=O)OCC1c2ccccc2-c2ccccc21

>  <CAS>  (440) 
130309-34-1

>  <User>  (440) 
alice.granger@orbismedicines.com

>  <StereoComment>  (440) 
as drawn

>  <Name>  (440) 
(2S,3aS,6aS)-1-{[(9H-fluoren-9-yl)methoxy]carbonyl}-octahydrocyclopenta[b]pyrrole-2-carboxylic acid

>  <Code>  (440) 
cPentPyrrole

>  <AliasLowerCase>  (440) 
cpentpyrrole

>  <LatestVersion>  (440) 
0.0

>  <createdAt>  (440) 
2026-03-11T10:37:04.546Z

>  <updatedAt>  (440) 
2026-03-11T10:37:04.546Z

>  <NumRotatableBonds>  (440) 
1

>  <is_N_methyl>  (440) 
False

>  <is_a_methyl>  (440) 
False

>  <is_alpha_aa>  (440) 
True

>  <is_beta_aa>  (440) 
False

>  <is_S100_aa>  (440) 
False

>  <Murcko_SMILES>  (440) 
C1C[C@H]2CCN[C@H]2C1

$$$$

     RDKit          2D

  0  0  0  0  0  0  0  0  0  0999 V3000
M  V30 BEGIN CTAB
M  V30 COUNTS 14 15 0 0 0
M  V30 BEGIN ATOM
M  V30 1 O -3.754828 -2.185452 0.000000 0
M  V30 2 C -2.640110 -3.189148 0.000000 0
M  V30 3 C -1.213525 -2.725623 0.000000 0
M  V30 4 C -0.000000 -3.607301 0.000000 0
M  V30 5 C 1.213525 -2.725623 0.000000 0
M  V30 6 N 2.640110 -3.189148 0.000000 0
M  V30 7 "NOT [H]" 2.951978 -4.656370 0.000000 1
M  V30 8 C 0.750000 -1.299038 0.000000 0
M  V30 9 C 1.500000 0.000000 0.000000 0
M  V30 10 C 0.750000 1.299038 0.000000 0
M  V30 11 C -0.750000 1.299038 0.000000 0
M  V30 12 C -1.500000 0.000000 0.000000 0
M  V30 13 C -0.750000 -1.299038 0.000000 0
M  V30 14 "NOT [H]" -2.951978 -4.656370 0.000000 2
M  V30 END ATOM
M  V30 BEGIN BOND
M  V30 1 2 1 2
M  V30 2 1 3 2 CFG=1
M  V30 3 1 3 4
M  V30 4 1 4 5
M  V30 5 1 5 6 CFG=1
M  V30 6 1 6 7
M  V30 7 1 5 8
M  V30 8 2 8 9
M  V30 9 1 9 10
M  V30 10 2 10 11
M  V30 11 1 11 12
M  V30 12 2 12 13
M  V30 13 1 2 14
M  V30 14 1 13 3
M  V30 15 1 13 8
M  V30 END BOND
M  V30 BEGIN COLLECTION
M  V30 MDLV30/STERAC1 ATOMS=(2 3 5)
M  V30 END COLLECTION
M  V30 END CTAB
M  END
>  <id>  (441) 
d9ed484f-22e6-441c-965c-70e017c617a1

>  <Version>  (441) 
0

>  <Alias>  (441) 
DHInd

>  <Type>  (441) 
amino_acid

>  <Smiles>  (441) 
O=C([C@@H]1C[C@H](N[*:1])c2ccccc21)[*:2] |&1:2,4|

>  <ProtectedSmiles>  (441) 
O=C(N[C@H]1C[C@@H](C(=O)O)c2ccccc21)OCC1c2ccccc2-c2ccccc21 |&1:3,5|

>  <CAS>  (441) 
2137786-49-1

>  <User>  (441) 
angelica.l

>  <StereoComment>  (441) 
as drawn

>  <Name>  (441) 
rac-(1R,3S)-3-(9H-fluoren-9-ylmethoxycarbonylamino)indane-1-carboxylic acid

>  <Code>  (441) 
DHInd

>  <AliasLowerCase>  (441) 
dhind

>  <LatestVersion>  (441) 
0.0

>  <createdAt>  (441) 
2026-01-14T11:35:23.596Z

>  <updatedAt>  (441) 
2026-01-14T11:35:23.596Z

>  <NumRotatableBonds>  (441) 
2

>  <is_N_methyl>  (441) 
False

>  <is_a_methyl>  (441) 
False

>  <is_alpha_aa>  (441) 
False

>  <is_beta_aa>  (441) 
False

>  <is_S100_aa>  (441) 
False

>  <Murcko_SMILES>  (441) 
c1ccc2c(c1)CCC2 c1ccc2c(c1)CCC2

$$$$

     RDKit          2D

 12 11  0  0  0  0  0  0  0  0999 V2000
    7.7942   -0.0000    0.0000 C   0  0  0  0  0  0  0  0  0  0  0  0
    6.4952    0.7500    0.0000 C   0  0  0  0  0  0  0  0  0  0  0  0
    6.4952    2.2500    0.0000 C   0  0  0  0  0  0  0  0  0  0  0  0
    5.1962   -0.0000    0.0000 C   0  0  0  0  0  0  0  0  0  0  0  0
    3.8971    0.7500    0.0000 C   0  0  0  0  0  0  0  0  0  0  0  0
    2.5981   -0.0000    0.0000 C   0  0  0  0  0  0  0  0  0  0  0  0
    1.2990    0.7500    0.0000 N   0  0  0  0  0  0  0  0  0  0  0  0
    0.0000    0.0000    0.0000 R   0  0  0  0  0  1  0  0  0  1  0  0
    3.8971    2.2500    0.0000 C   0  0  0  0  0  0  0  0  0  0  0  0
    2.5981    3.0000    0.0000 C   0  0  0  0  0  0  0  0  0  0  0  0
    1.2990    2.2500    0.0000 O   0  0  0  0  0  0  0  0  0  0  0  0
    2.5981    4.5000    0.0000 R   0  0  0  0  0  1  0  0  0  2  0  0
  1  2  1  0
  2  3  1  0
  2  4  1  0
  4  5  1  0
  5  6  1  0
  6  7  1  0
  7  8  1  0
  5  9  1  0
  9 10  1  0
 10 11  2  0
 10 12  1  0
M  END
>  <id>  (442) 
770a3b5f-ddeb-4ca1-800d-c6697640501b

>  <Version>  (442) 
0

>  <Alias>  (442) 
rac-Pregab

>  <Type>  (442) 
amino_acid

>  <Smiles>  (442) 
CC(C)CC(CN[*:1])CC(=O)[*:2]

>  <ProtectedSmiles>  (442) 
CC(C)CC(CNC(=O)OCC1c2ccccc2-c2ccccc21)CC(=O)O

>  <CAS>  (442) 
1548292-76-7

>  <User>  (442) 
mischa.s

>  <StereoComment>  (442) 
as drawn

>  <Name>  (442) 
(3S)-3-[({[(9H-fluoren-9-yl)methoxy]carbonyl}amino)methyl]-5-methylhexanoic acid

>  <Code>  (442) 
rac-Pregab

>  <AliasLowerCase>  (442) 
rac-pregab

>  <LatestVersion>  (442) 
0.0

>  <createdAt>  (442) 
2026-01-14T11:34:55.090Z

>  <updatedAt>  (442) 
2026-01-14T11:34:55.090Z

>  <NumRotatableBonds>  (442) 
6

>  <is_N_methyl>  (442) 
False

>  <is_a_methyl>  (442) 
False

>  <is_alpha_aa>  (442) 
False

>  <is_beta_aa>  (442) 
False

>  <is_S100_aa>  (442) 
False

>  <Murcko_SMILES>  (442) 


$$$$

     RDKit          2D

 10 10  0  0  0  0  0  0  0  0999 V2000
    3.5260    1.2990    0.0000 O   0  0  0  0  0  0  0  0  0  0  0  0
    2.7760    0.0000    0.0000 C   0  0  0  0  0  0  0  0  0  0  0  0
    1.2760    0.0000    0.0000 C   0  0  0  0  0  0  0  0  0  0  0  0
    0.3943    1.2135    0.0000 C   0  0  0  0  0  0  0  0  0  0  0  0
   -1.0323    0.7500    0.0000 C   0  0  0  0  0  0  0  0  0  0  0  0
   -2.2458    1.6317    0.0000 O   0  0  0  0  0  0  0  0  0  0  0  0
   -1.0323   -0.7500    0.0000 C   0  0  0  0  0  0  0  0  0  0  0  0
    0.3943   -1.2135    0.0000 N   0  0  0  0  0  0  0  0  0  0  0  0
    0.8578   -2.6401    0.0000 R   0  0  0  0  0  1  0  0  0  1  0  0
    3.5260   -1.2990    0.0000 R   0  0  0  0  0  1  0  0  0  2  0  0
  1  2  2  0
  3  2  1  1
  3  4  1  0
  4  5  1  0
  5  6  1  6
  5  7  1  0
  7  8  1  0
  8  9  1  0
  2 10  1  0
  8  3  1  0
M  END
>  <id>  (443) 
bb110d1b-c246-42f7-a865-af715b31c32b

>  <Version>  (443) 
0

>  <Alias>  (443) 
Hyp(4R)

>  <Type>  (443) 
amino_acid

>  <Smiles>  (443) 
O=C([C@@H]1C[C@@H](O)CN1[*:1])[*:2]

>  <ProtectedSmiles>  (443) 
O=C(O)[C@@H]1C[C@@H](O)CN1C(=O)OCC1c2ccccc2-c2ccccc21

>  <CAS>  (443) 
88050-17-3

>  <User>  (443) 
mischa.s

>  <StereoComment>  (443) 
as drawn

>  <Name>  (443) 
(2S,4R)-1-(((9H-Fluoren-9-yl)methoxy)carbonyl)-4-hydroxypyrrolidine-2-carboxylic acid

>  <Code>  (443) 
Hyp(4R)

>  <AliasLowerCase>  (443) 
hyp(4r)

>  <LatestVersion>  (443) 
0.0

>  <createdAt>  (443) 
2026-01-14T11:36:33.490Z

>  <updatedAt>  (443) 
2026-01-14T11:36:33.490Z

>  <NumRotatableBonds>  (443) 
1

>  <is_N_methyl>  (443) 
False

>  <is_a_methyl>  (443) 
False

>  <is_alpha_aa>  (443) 
True

>  <is_beta_aa>  (443) 
False

>  <is_S100_aa>  (443) 
False

>  <Murcko_SMILES>  (443) 
C1CCNC1

$$$$

     RDKit          2D

 16 17  0  0  0  0  0  0  0  0999 V2000
    1.8478   -6.4639    0.0000 C   0  0  0  0  0  0  0  0  0  0  0  0
    2.0046   -4.9721    0.0000 C   0  0  0  0  0  0  0  0  0  0  0  0
    3.3037   -4.2221    0.0000 C   0  0  0  0  0  0  0  0  0  0  0  0
    2.9918   -2.7549    0.0000 N   0  0  0  0  0  0  0  0  0  0  0  0
    1.5000   -2.5981    0.0000 N   0  0  0  0  0  0  0  0  0  0  0  0
    0.7500   -1.2990    0.0000 C   0  0  0  0  0  0  0  0  0  0  0  0
    1.5000    0.0000    0.0000 C   0  0  0  0  0  0  0  0  0  0  0  0
    0.7500    1.2990    0.0000 C   0  0  0  0  0  0  0  0  0  0  0  0
   -0.7500    1.2990    0.0000 C   0  0  0  0  0  0  0  0  0  0  0  0
   -1.5000    0.0000    0.0000 N   0  0  0  0  0  0  0  0  0  0  0  0
   -3.0000    0.0000    0.0000 R   0  0  0  0  0  1  0  0  0  1  0  0
   -0.7500   -1.2990    0.0000 C   0  0  0  0  0  0  0  0  0  0  0  0
    0.8899   -3.9684    0.0000 C   0  0  0  0  0  0  0  0  0  0  0  0
   -0.5773   -4.2803    0.0000 C   0  0  0  0  0  0  0  0  0  0  0  0
   -1.5810   -3.1655    0.0000 O   0  0  0  0  0  0  0  0  0  0  0  0
   -1.0409   -5.7068    0.0000 R   0  0  0  0  0  1  0  0  0  2  0  0
  1  2  1  0
  2  3  1  0
  3  4  2  0
  4  5  1  0
  5  6  1  0
  6  7  1  0
  7  8  1  0
  8  9  1  0
  9 10  1  0
 10 11  1  0
 10 12  1  0
  5 13  1  0
 13 14  1  0
 14 15  2  0
 14 16  1  0
 13  2  2  0
 12  6  1  0
M  END
>  <id>  (444) 
d43a21df-541e-44e9-8fe8-bbdfc50d0941

>  <Version>  (444) 
0

>  <Alias>  (444) 
3PipPrzCA

>  <Type>  (444) 
amino_acid

>  <Smiles>  (444) 
Cc1cnn(C2CCCN([*:1])C2)c1C(=O)[*:2]

>  <ProtectedSmiles>  (444) 
Cc1cnn(C2CCCN(C(=O)OCC3c4ccccc4-c4ccccc43)C2)c1C(=O)O

>  <CAS>  (444) 
2138097-18-2

>  <User>  (444) 
Sevan.habeshian@orbismedicines.com

>  <StereoComment>  (444) 
as drawn

>  <Name>  (444) 
N/A

>  <Code>  (444) 
3PipPrzCA

>  <AliasLowerCase>  (444) 
3pipprzca

>  <LatestVersion>  (444) 
0.0

>  <createdAt>  (444) 
2026-02-13T09:56:35.477Z

>  <updatedAt>  (444) 
2026-02-13T09:56:35.477Z

>  <NumRotatableBonds>  (444) 
2

>  <is_N_methyl>  (444) 
False

>  <is_a_methyl>  (444) 
False

>  <is_alpha_aa>  (444) 
False

>  <is_beta_aa>  (444) 
False

>  <is_S100_aa>  (444) 
False

>  <Murcko_SMILES>  (444) 
c1cnn(C2CCCNC2)c1

$$$$

     RDKit          2D

 12 12  0  0  0  0  0  0  0  0999 V2000
    2.3907    1.0037    0.0000 C   0  0  0  0  0  0  0  0  0  0  0  0
    1.2760    0.0000    0.0000 C   0  0  0  0  0  0  0  0  0  0  0  0
    2.3907   -1.0037    0.0000 C   0  0  0  0  0  0  0  0  0  0  0  0
    0.3943    1.2135    0.0000 C   0  0  0  0  0  0  0  0  0  0  0  0
   -1.0323    0.7500    0.0000 C   0  0  0  0  0  0  0  0  0  0  0  0
   -1.0323   -0.7500    0.0000 C   0  0  0  0  0  0  0  0  0  0  0  0
   -2.5241   -0.5932    0.0000 N   0  0  0  0  0  0  0  0  0  0  0  0
   -3.1342    0.7771    0.0000 R   0  0  0  0  0  1  0  0  0  1  0  0
   -1.3442   -2.2172    0.0000 C   0  0  0  0  0  0  0  0  0  0  0  0
   -0.2294   -3.2209    0.0000 O   0  0  0  0  0  0  0  0  0  0  0  0
   -2.7707   -2.6807    0.0000 R   0  0  0  0  0  1  0  0  0  2  0  0
    0.3943   -1.2135    0.0000 C   0  0  0  0  0  0  0  0  0  0  0  0
  1  2  1  0
  2  3  1  0
  2  4  1  0
  4  5  1  0
  5  6  1  0
  6  7  1  0
  7  8  1  0
  6  9  1  0
  9 10  2  0
  9 11  1  0
  6 12  1  0
 12  2  1  0
M  END
>  <id>  (445) 
a2cfc080-4772-4e97-80cf-61967a2f15f8

>  <Version>  (445) 
0

>  <Alias>  (445) 
3,3diMeCyPentCA

>  <Type>  (445) 
amino_acid

>  <Smiles>  (445) 
CC1(C)CCC(N[*:1])(C(=O)[*:2])C1

>  <ProtectedSmiles>  (445) 
CC1(C)CCC(NC(=O)OCC2c3ccccc3-c3ccccc32)(C(=O)O)C1

>  <CAS>  (445) 
1698108-29-0

>  <User>  (445) 
angelica.l

>  <StereoComment>  (445) 
as drawn

>  <Name>  (445) 
1-({[(9H-fluoren-9-yl)methoxy]carbonyl}amino)-3,3-dimethylcyclopentane-1-carboxylic acid

>  <Code>  (445) 
3,3diMeCyPentCA

>  <AliasLowerCase>  (445) 
3,3dimecypentca

>  <LatestVersion>  (445) 
0.0

>  <createdAt>  (445) 
2026-01-14T11:35:26.711Z

>  <updatedAt>  (445) 
2026-01-14T11:35:26.711Z

>  <NumRotatableBonds>  (445) 
2

>  <is_N_methyl>  (445) 
False

>  <is_a_methyl>  (445) 
False

>  <is_alpha_aa>  (445) 
True

>  <is_beta_aa>  (445) 
False

>  <is_S100_aa>  (445) 
False

>  <Murcko_SMILES>  (445) 
C1CCCC1

$$$$

     RDKit          2D

 10  9  0  0  0  0  0  0  0  0999 V2000
    5.1962   -1.5000    0.0000 O   0  0  0  0  0  0  0  0  0  0  0  0
    5.1962   -0.0000    0.0000 C   0  0  0  0  0  0  0  0  0  0  0  0
    6.4952    0.7500    0.0000 O   0  0  0  0  0  0  0  0  0  0  0  0
    3.8971    0.7500    0.0000 C   0  0  0  0  0  0  0  0  0  0  0  0
    2.5981   -0.0000    0.0000 C   0  0  0  0  0  0  0  0  0  0  0  0
    1.2990    0.7500    0.0000 N   0  0  0  0  0  0  0  0  0  0  0  0
    0.0000    0.0000    0.0000 R   0  0  0  0  0  1  0  0  0  1  0  0
    2.5981   -1.5000    0.0000 C   0  0  0  0  0  0  0  0  0  0  0  0
    1.2990   -2.2500    0.0000 O   0  0  0  0  0  0  0  0  0  0  0  0
    3.8971   -2.2500    0.0000 R   0  0  0  0  0  1  0  0  0  2  0  0
  1  2  2  0
  2  3  1  0
  2  4  1  0
  5  4  1  6
  5  6  1  0
  6  7  1  0
  5  8  1  0
  8  9  2  0
  8 10  1  0
M  END
>  <id>  (446) 
5d734193-773a-4807-b492-d3332657149c

>  <Version>  (446) 
0

>  <Alias>  (446) 
D-Asp

>  <Type>  (446) 
amino_acid

>  <Smiles>  (446) 
O=C(O)C[C@@H](N[*:1])C(=O)[*:2]

>  <ProtectedSmiles>  (446) 
CC(C)(C)OC(=O)C[C@@H](NC(=O)OCC1c2ccccc2-c2ccccc21)C(=O)O

>  <CAS>  (446) 
112883-39-3

>  <User>  (446) 
sevan.h

>  <StereoComment>  (446) 
as drawn

>  <Name>  (446) 
Fmoc-D-Asp(OtBu)-OH

>  <Code>  (446) 
D-Asp

>  <AliasLowerCase>  (446) 
d-asp

>  <LatestVersion>  (446) 
0.0

>  <createdAt>  (446) 
2026-01-14T12:16:38.057Z

>  <updatedAt>  (446) 
2026-01-14T12:16:38.057Z

>  <NumRotatableBonds>  (446) 
4

>  <is_N_methyl>  (446) 
False

>  <is_a_methyl>  (446) 
False

>  <is_alpha_aa>  (446) 
True

>  <is_beta_aa>  (446) 
False

>  <is_S100_aa>  (446) 
False

>  <Murcko_SMILES>  (446) 


$$$$

     RDKit          2D

 11 11  0  0  0  0  0  0  0  0999 V2000
    3.7500    1.2990    0.0000 O   0  0  0  0  0  0  0  0  0  0  0  0
    3.0000    0.0000    0.0000 C   0  0  0  0  0  0  0  0  0  0  0  0
    1.5000    0.0000    0.0000 C   0  0  0  0  0  0  0  0  0  0  0  0
    0.7500   -1.2990    0.0000 C   0  0  0  0  0  0  0  0  0  0  0  0
   -0.7500   -1.2990    0.0000 C   0  0  0  0  0  0  0  0  0  0  0  0
   -1.5000    0.0000    0.0000 C   0  0  0  0  0  0  0  0  0  0  0  0
   -3.0000    0.0000    0.0000 N   0  0  0  0  0  0  0  0  0  0  0  0
   -3.7500    1.2990    0.0000 R   0  0  0  0  0  1  0  0  0  1  0  0
   -0.7500    1.2990    0.0000 C   0  0  0  0  0  0  0  0  0  0  0  0
    0.7500    1.2990    0.0000 C   0  0  0  0  0  0  0  0  0  0  0  0
    3.7500   -1.2990    0.0000 R   0  0  0  0  0  1  0  0  0  2  0  0
  1  2  2  0
  3  2  1  1
  3  4  1  0
  4  5  1  0
  5  6  1  0
  6  7  1  1
  7  8  1  0
  6  9  1  0
  9 10  1  0
  2 11  1  0
 10  3  1  0
M  END
>  <id>  (447) 
63b55261-4ba0-4710-aed5-cb8705e1ca8f

>  <Version>  (447) 
0

>  <Alias>  (447) 
1,4cACHC

>  <Type>  (447) 
amino_acid

>  <Smiles>  (447) 
O=C([C@H]1CC[C@@H](N[*:1])CC1)[*:2]

>  <ProtectedSmiles>  (447) 
O=C(N[C@H]1CC[C@@H](C(=O)O)CC1)OCC1c2ccccc2-c2ccccc21

>  <CAS>  (447) 
147900-45-6

>  <User>  (447) 
sevan.h

>  <StereoComment>  (447) 
as drawn

>  <Name>  (447) 
Fmoc-1,4-cis-achc-oh

>  <Code>  (447) 
1,4cACHC

>  <AliasLowerCase>  (447) 
1,4cachc

>  <LatestVersion>  (447) 
0.0

>  <createdAt>  (447) 
2026-01-14T12:15:03.791Z

>  <updatedAt>  (447) 
2026-01-14T12:15:03.791Z

>  <NumRotatableBonds>  (447) 
2

>  <is_N_methyl>  (447) 
False

>  <is_a_methyl>  (447) 
False

>  <is_alpha_aa>  (447) 
False

>  <is_beta_aa>  (447) 
False

>  <is_S100_aa>  (447) 
False

>  <Murcko_SMILES>  (447) 
C1CCCCC1

$$$$

     RDKit          2D

 13 13  0  0  0  0  0  0  0  0999 V2000
    4.3191   -1.0261    0.0000 O   0  0  0  0  0  0  0  0  0  0  0  0
    4.0586    0.4512    0.0000 C   0  0  0  0  0  0  0  0  0  0  0  0
    2.6491    0.9642    0.0000 C   0  0  0  0  0  0  0  0  0  0  0  0
    1.5000    0.0000    0.0000 C   0  0  0  0  0  0  0  0  0  0  0  0
    2.6491   -0.9642    0.0000 C   0  0  0  0  0  0  0  0  0  0  0  0
    2.3886   -2.4414    0.0000 N   0  0  0  0  0  0  0  0  0  0  0  0
    3.5377   -3.4056    0.0000 R   0  0  0  0  0  1  0  0  0  1  0  0
    0.7500   -1.2990    0.0000 C   0  0  0  0  0  0  0  0  0  0  0  0
   -0.7500   -1.2990    0.0000 C   0  0  0  0  0  0  0  0  0  0  0  0
   -1.5000    0.0000    0.0000 C   0  0  0  0  0  0  0  0  0  0  0  0
   -0.7500    1.2990    0.0000 C   0  0  0  0  0  0  0  0  0  0  0  0
    0.7500    1.2990    0.0000 C   0  0  0  0  0  0  0  0  0  0  0  0
    5.2077    1.4153    0.0000 R   0  0  0  0  0  1  0  0  0  2  0  0
  1  2  2  0
  2  3  1  0
  3  4  1  0
  4  5  1  0
  5  6  1  0
  6  7  1  0
  4  8  1  0
  8  9  1  0
  9 10  1  0
 10 11  1  0
 11 12  1  0
  2 13  1  0
 12  4  1  0
M  END
>  <id>  (448) 
c12c3d54-b476-4f3d-8824-fdc3dfca46d3

>  <Version>  (448) 
0

>  <Alias>  (448) 
Gpn

>  <Type>  (448) 
amino_acid

>  <Smiles>  (448) 
O=C(CC1(CN[*:1])CCCCC1)[*:2]

>  <ProtectedSmiles>  (448) 
O=C(O)CC1(CNC(=O)OCC2c3ccccc3-c3ccccc32)CCCCC1

>  <CAS>  (448) 
882847-19-0

>  <User>  (448) 
sevan.h

>  <StereoComment>  (448) 
as drawn

>  <Name>  (448) 
2-{1-[({[(9H-fluoren-9-yl)methoxy]carbonyl}amino)methyl]cyclohexyl}acetic acid

>  <Code>  (448) 
Gpn

>  <AliasLowerCase>  (448) 
gpn

>  <LatestVersion>  (448) 
0.0

>  <createdAt>  (448) 
2026-01-14T11:38:16.784Z

>  <updatedAt>  (448) 
2026-01-14T11:38:16.784Z

>  <NumRotatableBonds>  (448) 
4

>  <is_N_methyl>  (448) 
False

>  <is_a_methyl>  (448) 
False

>  <is_alpha_aa>  (448) 
False

>  <is_beta_aa>  (448) 
False

>  <is_S100_aa>  (448) 
False

>  <Murcko_SMILES>  (448) 
C1CCCCC1

$$$$

     RDKit          2D

 15 15  0  0  0  0  0  0  0  0999 V2000
    8.2500   -1.2990    0.0000 O   0  0  0  0  0  0  0  0  0  0  0  0
    7.5000   -2.5981    0.0000 C   0  0  0  0  0  0  0  0  0  0  0  0
    6.0000   -2.5981    0.0000 C   0  0  0  0  0  0  0  0  0  0  0  0
    5.2500   -1.2990    0.0000 C   0  0  0  0  0  0  0  0  0  0  0  0
    3.7500   -1.2990    0.0000 C   0  0  0  0  0  0  0  0  0  0  0  0
    3.0000    0.0000    0.0000 O   0  0  0  0  0  0  0  0  0  0  0  0
    1.5000    0.0000    0.0000 C   0  0  0  0  0  0  0  0  0  0  0  0
    0.7500   -1.2990    0.0000 C   0  0  0  0  0  0  0  0  0  0  0  0
   -0.7500   -1.2990    0.0000 C   0  0  0  0  0  0  0  0  0  0  0  0
   -1.5000    0.0000    0.0000 C   0  0  0  0  0  0  0  0  0  0  0  0
   -0.7500    1.2990    0.0000 C   0  0  0  0  0  0  0  0  0  0  0  0
    0.7500    1.2990    0.0000 C   0  0  0  0  0  0  0  0  0  0  0  0
    5.2500   -3.8971    0.0000 N   0  0  0  0  0  0  0  0  0  0  0  0
    6.0000   -5.1962    0.0000 R   0  0  0  0  0  1  0  0  0  1  0  0
    8.2500   -3.8971    0.0000 R   0  0  0  0  0  1  0  0  0  2  0  0
  1  2  2  0
  2  3  1  0
  3  4  1  1
  4  5  1  0
  5  6  1  0
  6  7  1  0
  7  8  2  0
  8  9  1  0
  9 10  2  0
 10 11  1  0
 11 12  2  0
  3 13  1  0
 13 14  1  0
  2 15  1  0
 12  7  1  0
M  END
>  <id>  (449) 
c350b6d8-02b7-4f4e-ae06-ac0c76dc1be1

>  <Version>  (449) 
0

>  <Alias>  (449) 
hSer(OPh)

>  <Type>  (449) 
amino_acid

>  <Smiles>  (449) 
O=C([C@H](CCOc1ccccc1)N[*:1])[*:2]

>  <ProtectedSmiles>  (449) 
O=C(N[C@@H](CCOc1ccccc1)C(=O)O)OCC1c2ccccc2-c2ccccc21

>  <CAS>  (449) 
1821774-68-8

>  <User>  (449) 
Sevan.habeshian@orbismedicines.com

>  <StereoComment>  (449) 
as drawn

>  <Name>  (449) 
N/A

>  <Code>  (449) 
hSer(OPh)

>  <AliasLowerCase>  (449) 
hser(oph)

>  <LatestVersion>  (449) 
0.0

>  <createdAt>  (449) 
2026-02-13T09:56:35.394Z

>  <updatedAt>  (449) 
2026-02-13T09:56:35.394Z

>  <NumRotatableBonds>  (449) 
6

>  <is_N_methyl>  (449) 
False

>  <is_a_methyl>  (449) 
False

>  <is_alpha_aa>  (449) 
True

>  <is_beta_aa>  (449) 
False

>  <is_S100_aa>  (449) 
False

>  <Murcko_SMILES>  (449) 
c1ccccc1

$$$$

     RDKit          2D

 13 13  0  0  0  0  0  0  0  0999 V2000
    6.0000    0.0000    0.0000 O   0  0  0  0  0  0  0  0  0  0  0  0
    5.2500   -1.2990    0.0000 C   0  0  0  0  0  0  0  0  0  0  0  0
    3.7500   -1.2990    0.0000 C   0  0  0  0  0  0  0  0  0  0  0  0
    3.0000    0.0000    0.0000 C   0  0  0  0  0  0  0  0  0  0  0  0
    3.7500    1.2990    0.0000 N   0  0  0  0  0  0  0  0  0  0  0  0
    5.2500    1.2990    0.0000 R   0  0  0  0  0  1  0  0  0  1  0  0
    1.5000    0.0000    0.0000 C   0  0  0  0  0  0  0  0  0  0  0  0
    0.7500   -1.2990    0.0000 C   0  0  0  0  0  0  0  0  0  0  0  0
   -0.7500   -1.2990    0.0000 C   0  0  0  0  0  0  0  0  0  0  0  0
   -1.5000    0.0000    0.0000 C   0  0  0  0  0  0  0  0  0  0  0  0
   -0.7500    1.2990    0.0000 C   0  0  0  0  0  0  0  0  0  0  0  0
    0.7500    1.2990    0.0000 N   0  0  0  0  0  0  0  0  0  0  0  0
    6.0000   -2.5981    0.0000 R   0  0  0  0  0  1  0  0  0  2  0  0
  1  2  2  0
  2  3  1  0
  3  4  1  0
  4  5  1  0
  5  6  1  0
  4  7  1  0
  7  8  2  0
  8  9  1  0
  9 10  2  0
 10 11  1  0
 11 12  2  0
  2 13  1  0
 12  7  1  0
M  END
>  <id>  (450) 
b5a45716-a09d-43bb-bc68-c730c6f65100

>  <Version>  (450) 
0

>  <Alias>  (450) 
rac3-(2Pyr)PA

>  <Type>  (450) 
amino_acid

>  <Smiles>  (450) 
O=C(CC(N[*:1])c1ccccn1)[*:2]

>  <ProtectedSmiles>  (450) 
O=C(O)CC(NC(=O)OCC1c2ccccc2-c2ccccc21)c1ccccn1

>  <CAS>  (450) 
886505-63-1

>  <User>  (450) 
Sevan.habeshian@orbismedicines.com

>  <StereoComment>  (450) 
as drawn

>  <Name>  (450) 
N/A

>  <Code>  (450) 
rac3-(2Pyr)PA

>  <AliasLowerCase>  (450) 
rac3-(2pyr)pa

>  <LatestVersion>  (450) 
0.0

>  <createdAt>  (450) 
2026-02-13T09:56:35.493Z

>  <updatedAt>  (450) 
2026-02-13T09:56:35.493Z

>  <NumRotatableBonds>  (450) 
4

>  <is_N_methyl>  (450) 
False

>  <is_a_methyl>  (450) 
False

>  <is_alpha_aa>  (450) 
False

>  <is_beta_aa>  (450) 
True

>  <is_S100_aa>  (450) 
False

>  <Murcko_SMILES>  (450) 
c1ccncc1

$$$$

     RDKit          2D

 10 10  0  0  0  0  0  0  0  0999 V2000
    3.7500    1.2990    0.0000 O   0  0  0  0  0  0  0  0  0  0  0  0
    3.0000    0.0000    0.0000 C   0  0  0  0  0  0  0  0  0  0  0  0
    1.5000    0.0000    0.0000 C   0  0  0  0  0  0  0  0  0  0  0  0
    0.7500   -1.2990    0.0000 C   0  0  0  0  0  0  0  0  0  0  0  0
   -0.7500   -1.2990    0.0000 C   0  0  0  0  0  0  0  0  0  0  0  0
   -1.5000    0.0000    0.0000 C   0  0  0  0  0  0  0  0  0  0  0  0
   -0.7500    1.2990    0.0000 C   0  0  0  0  0  0  0  0  0  0  0  0
    0.7500    1.2990    0.0000 N   0  0  0  0  0  0  0  0  0  0  0  0
    1.5000    2.5981    0.0000 R   0  0  0  0  0  1  0  0  0  1  0  0
    3.7500   -1.2990    0.0000 R   0  0  0  0  0  1  0  0  0  2  0  0
  1  2  2  0
  3  2  1  1
  3  4  1  0
  4  5  1  0
  5  6  1  0
  6  7  1  0
  7  8  1  0
  8  9  1  0
  2 10  1  0
  8  3  1  0
M  END
>  <id>  (451) 
c615f41d-514d-47f0-b7f8-d4caed511d1c

>  <Version>  (451) 
0

>  <Alias>  (451) 
D-pip

>  <Type>  (451) 
amino_acid

>  <Smiles>  (451) 
O=C([C@H]1CCCCN1[*:1])[*:2]

>  <ProtectedSmiles>  (451) 
O=C(O)[C@H]1CCCCN1C(=O)OCC1c2ccccc2-c2ccccc21

>  <CAS>  (451) 
101555-63-9

>  <User>  (451) 
sevan.h

>  <StereoComment>  (451) 
as drawn

>  <Name>  (451) 
Fmoc-D-pipecolic acid

>  <Code>  (451) 
D-pip

>  <AliasLowerCase>  (451) 
d-pip

>  <LatestVersion>  (451) 
0.0

>  <createdAt>  (451) 
2026-01-14T12:17:08.477Z

>  <updatedAt>  (451) 
2026-01-14T12:17:08.477Z

>  <NumRotatableBonds>  (451) 
1

>  <is_N_methyl>  (451) 
False

>  <is_a_methyl>  (451) 
False

>  <is_alpha_aa>  (451) 
True

>  <is_beta_aa>  (451) 
False

>  <is_S100_aa>  (451) 
False

>  <Murcko_SMILES>  (451) 
C1CCNCC1

$$$$

     RDKit          2D

 14 14  0  0  0  0  0  0  0  0999 V2000
    6.0000    0.0000    0.0000 O   0  0  0  0  0  0  0  0  0  0  0  0
    5.2500   -1.2990    0.0000 C   0  0  0  0  0  0  0  0  0  0  0  0
    3.7500   -1.2990    0.0000 C   0  0  0  0  0  0  0  0  0  0  0  0
    3.0000    0.0000    0.0000 C   0  0  0  0  0  0  0  0  0  0  0  0
    3.7500    1.2990    0.0000 C   0  0  0  0  0  0  0  0  0  0  0  0
    5.2500    1.2990    0.0000 N   0  0  0  0  0  0  0  0  0  0  0  0
    6.0000    2.5981    0.0000 R   0  0  0  0  0  1  0  0  0  1  0  0
    1.5000    0.0000    0.0000 C   0  0  0  0  0  0  0  0  0  0  0  0
    0.7500   -1.2990    0.0000 C   0  0  0  0  0  0  0  0  0  0  0  0
   -0.7500   -1.2990    0.0000 C   0  0  0  0  0  0  0  0  0  0  0  0
   -1.5000    0.0000    0.0000 C   0  0  0  0  0  0  0  0  0  0  0  0
   -0.7500    1.2990    0.0000 C   0  0  0  0  0  0  0  0  0  0  0  0
    0.7500    1.2990    0.0000 C   0  0  0  0  0  0  0  0  0  0  0  0
    6.0000   -2.5981    0.0000 R   0  0  0  0  0  1  0  0  0  2  0  0
  1  2  2  0
  2  3  1  0
  3  4  1  0
  4  5  1  0
  5  6  1  0
  6  7  1  0
  4  8  1  0
  8  9  2  0
  9 10  1  0
 10 11  2  0
 11 12  1  0
 12 13  2  0
  2 14  1  0
 13  8  1  0
M  END
>  <id>  (452) 
4870511b-c154-4240-ae7a-e037ab2518a2

>  <Version>  (452) 
0

>  <Alias>  (452) 
3PheButOH

>  <Type>  (452) 
amino_acid

>  <Smiles>  (452) 
O=C(CC(CN[*:1])c1ccccc1)[*:2]

>  <ProtectedSmiles>  (452) 
O=C(O)CC(CNC(=O)OCC1c2ccccc2-c2ccccc21)c1ccccc1

>  <CAS>  (452) 
282525-05-7

>  <User>  (452) 
gontran.s

>  <StereoComment>  (452) 
as drawn

>  <Name>  (452) 
4-({[(9H-fluoren-9-yl)methoxy]carbonyl}amino)-3-phenylbutanoic acid

>  <Code>  (452) 
3PheButOH

>  <AliasLowerCase>  (452) 
3phebutoh

>  <LatestVersion>  (452) 
0.0

>  <createdAt>  (452) 
2026-01-14T11:38:38.063Z

>  <updatedAt>  (452) 
2026-01-14T11:38:38.063Z

>  <NumRotatableBonds>  (452) 
5

>  <is_N_methyl>  (452) 
False

>  <is_a_methyl>  (452) 
False

>  <is_alpha_aa>  (452) 
False

>  <is_beta_aa>  (452) 
False

>  <is_S100_aa>  (452) 
False

>  <Murcko_SMILES>  (452) 
c1ccccc1

$$$$

     RDKit          2D

  9  9  0  0  0  0  0  0  0  0999 V2000
    3.5260    1.2990    0.0000 O   0  0  0  0  0  0  0  0  0  0  0  0
    2.7760    0.0000    0.0000 C   0  0  0  0  0  0  0  0  0  0  0  0
    1.2760    0.0000    0.0000 C   0  0  0  0  0  0  0  0  0  0  0  0
    0.3943    1.2135    0.0000 C   0  0  0  0  0  0  0  0  0  0  0  0
   -1.0323    0.7500    0.0000 C   0  0  0  0  0  0  0  0  0  0  0  0
   -1.0323   -0.7500    0.0000 C   0  0  0  0  0  0  0  0  0  0  0  0
    0.3943   -1.2135    0.0000 N   0  0  0  0  0  0  0  0  0  0  0  0
    0.8578   -2.6401    0.0000 R   0  0  0  0  0  1  0  0  0  1  0  0
    3.5260   -1.2990    0.0000 R   0  0  0  0  0  1  0  0  0  2  0  0
  1  2  2  0
  3  2  1  6
  3  4  1  0
  4  5  1  0
  5  6  1  0
  6  7  1  0
  7  8  1  0
  2  9  1  0
  7  3  1  0
M  END
>  <id>  (453) 
3d5b0d64-bc58-4e04-bcd1-843e4ca6589e

>  <Version>  (453) 
0

>  <Alias>  (453) 
D-Pro

>  <Type>  (453) 
amino_acid

>  <Smiles>  (453) 
O=C([C@H]1CCCN1[*:1])[*:2]

>  <ProtectedSmiles>  (453) 
O=C(O)[C@H]1CCCN1C(=O)OCC1c2ccccc2-c2ccccc21

>  <CAS>  (453) 
101555-62-8

>  <User>  (453) 
sevan.h

>  <StereoComment>  (453) 
as drawn

>  <Name>  (453) 
Fmoc-D-Pro-OH

>  <Code>  (453) 
D-Pro

>  <AliasLowerCase>  (453) 
d-pro

>  <LatestVersion>  (453) 
0.0

>  <createdAt>  (453) 
2026-01-14T12:17:10.644Z

>  <updatedAt>  (453) 
2026-01-14T12:17:10.644Z

>  <NumRotatableBonds>  (453) 
1

>  <is_N_methyl>  (453) 
False

>  <is_a_methyl>  (453) 
False

>  <is_alpha_aa>  (453) 
True

>  <is_beta_aa>  (453) 
False

>  <is_S100_aa>  (453) 
False

>  <Murcko_SMILES>  (453) 
C1CCNC1

$$$$

     RDKit          2D

 13 14  0  0  0  0  0  0  0  0999 V2000
    1.2990   -5.8573    0.0000 O   0  0  0  0  0  0  0  0  0  0  0  0
    0.0000   -5.1073    0.0000 C   0  0  0  0  0  0  0  0  0  0  0  0
   -0.0000   -3.6073    0.0000 C   0  0  0  0  0  0  0  0  0  0  0  0
   -1.2135   -2.7256    0.0000 N   0  0  0  0  0  0  0  0  0  0  0  0
   -0.7500   -1.2990    0.0000 C   0  0  0  0  0  0  0  0  0  0  0  0
    0.7500   -1.2990    0.0000 C   0  0  0  0  0  0  0  0  0  0  0  0
    1.2135   -2.7256    0.0000 S   0  0  0  0  0  0  0  0  0  0  0  0
    1.5000    0.0000    0.0000 C   0  0  0  0  0  0  0  0  0  0  0  0
    0.7500    1.2990    0.0000 C   0  0  0  0  0  0  0  0  0  0  0  0
   -0.7500    1.2990    0.0000 N   0  0  0  0  0  0  0  0  0  0  0  0
   -1.5000    2.5981    0.0000 R   0  0  0  0  0  1  0  0  0  1  0  0
   -1.5000    0.0000    0.0000 C   0  0  0  0  0  0  0  0  0  0  0  0
   -1.2990   -5.8573    0.0000 R   0  0  0  0  0  1  0  0  0  2  0  0
  1  2  2  0
  2  3  1  0
  3  4  2  0
  4  5  1  0
  5  6  2  0
  6  7  1  0
  6  8  1  0
  8  9  1  0
  9 10  1  0
 10 11  1  0
 10 12  1  0
  2 13  1  0
  7  3  1  0
 12  5  1  0
M  END
>  <id>  (454) 
c899323d-c966-4b57-8780-41cbb0694ef6

>  <Version>  (454) 
0

>  <Alias>  (454) 
DHTzlPyr

>  <Type>  (454) 
amino_acid

>  <Smiles>  (454) 
O=C(c1nc2c(s1)CCN([*:1])C2)[*:2]

>  <ProtectedSmiles>  (454) 
O=C(O)c1nc2c(s1)CCN(C(=O)OCC1c3ccccc3-c3ccccc31)C2

>  <CAS>  (454) 
2091737-71-0

>  <User>  (454) 
Sevan.habeshian@orbismedicines.com

>  <StereoComment>  (454) 
as drawn

>  <Name>  (454) 
N/A

>  <Code>  (454) 
DHTzlPyr

>  <AliasLowerCase>  (454) 
dhtzlpyr

>  <LatestVersion>  (454) 
0.0

>  <createdAt>  (454) 
2026-02-13T09:56:35.496Z

>  <updatedAt>  (454) 
2026-02-13T09:56:35.496Z

>  <NumRotatableBonds>  (454) 
1

>  <is_N_methyl>  (454) 
False

>  <is_a_methyl>  (454) 
False

>  <is_alpha_aa>  (454) 
False

>  <is_beta_aa>  (454) 
False

>  <is_S100_aa>  (454) 
False

>  <Murcko_SMILES>  (454) 
c1nc2c(s1)CCNC2

$$$$

     RDKit          2D

  9  8  0  0  0  0  0  0  0  0999 V2000
    5.1962   -0.0000    0.0000 C   0  0  0  0  0  0  0  0  0  0  0  0
    3.8971    0.7500    0.0000 C   0  0  0  0  0  0  0  0  0  0  0  0
    3.8971    2.2500    0.0000 O   0  0  0  0  0  0  0  0  0  0  0  0
    2.5981   -0.0000    0.0000 C   0  0  0  0  0  0  0  0  0  0  0  0
    1.2990    0.7500    0.0000 N   0  0  0  0  0  0  0  0  0  0  0  0
    0.0000    0.0000    0.0000 R   0  0  0  0  0  1  0  0  0  1  0  0
    2.5981   -1.5000    0.0000 C   0  0  0  0  0  0  0  0  0  0  0  0
    1.2990   -2.2500    0.0000 O   0  0  0  0  0  0  0  0  0  0  0  0
    3.8971   -2.2500    0.0000 R   0  0  0  0  0  1  0  0  0  2  0  0
  2  1  1  1
  2  3  1  0
  2  4  1  0
  4  5  1  1
  5  6  1  0
  4  7  1  0
  7  8  2  0
  7  9  1  0
M  END
>  <id>  (455) 
faabfee3-ecea-4f9d-8965-e7d08f508596

>  <Version>  (455) 
0

>  <Alias>  (455) 
allo-Thr

>  <Type>  (455) 
amino_acid

>  <Smiles>  (455) 
C[C@H](O)[C@H](N[*:1])C(=O)[*:2]

>  <ProtectedSmiles>  (455) 
C[C@H](OC(C)(C)C)[C@H](NC(=O)OCC1c2ccccc2-c2ccccc21)C(=O)O

>  <CAS>  (455) 
201481-37-0

>  <User>  (455) 
sevan.h

>  <StereoComment>  (455) 
as drawn

>  <Name>  (455) 
Fmoc-Allo-Thr(tBu)-OH

>  <Code>  (455) 
allo-Thr

>  <AliasLowerCase>  (455) 
allo-thr

>  <LatestVersion>  (455) 
0.0

>  <createdAt>  (455) 
2026-01-14T12:15:32.183Z

>  <updatedAt>  (455) 
2026-01-14T12:15:32.183Z

>  <NumRotatableBonds>  (455) 
3

>  <is_N_methyl>  (455) 
False

>  <is_a_methyl>  (455) 
False

>  <is_alpha_aa>  (455) 
True

>  <is_beta_aa>  (455) 
False

>  <is_S100_aa>  (455) 
False

>  <Murcko_SMILES>  (455) 


$$$$

     RDKit          2D

 13 13  0  0  0  0  0  0  0  0999 V2000
    2.7760    0.0000    0.0000 C   0  0  0  0  0  0  0  0  0  0  0  0
    1.2760    0.0000    0.0000 C   0  0  0  0  0  0  0  0  0  0  0  0
    0.3943    1.2135    0.0000 N   0  0  0  0  0  0  0  0  0  0  0  0
   -1.0323    0.7500    0.0000 O   0  0  0  0  0  0  0  0  0  0  0  0
   -1.0323   -0.7500    0.0000 N   0  0  0  0  0  0  0  0  0  0  0  0
    0.3943   -1.2135    0.0000 C   0  0  0  0  0  0  0  0  0  0  0  0
    0.8578   -2.6401    0.0000 C   0  0  0  0  0  0  0  0  0  0  0  0
   -0.1459   -3.7548    0.0000 C   0  0  0  0  0  0  0  0  0  0  0  0
   -1.6131   -3.4430    0.0000 N   0  0  0  0  0  0  0  0  0  0  0  0
   -2.6168   -4.5577    0.0000 R   0  0  0  0  0  1  0  0  0  1  0  0
    0.3177   -5.1814    0.0000 C   0  0  0  0  0  0  0  0  0  0  0  0
    1.7849   -5.4933    0.0000 O   0  0  0  0  0  0  0  0  0  0  0  0
   -0.6860   -6.2961    0.0000 R   0  0  0  0  0  1  0  0  0  2  0  0
  1  2  1  0
  2  3  2  0
  3  4  1  0
  4  5  1  0
  5  6  2  0
  6  7  1  0
  7  8  1  0
  8  9  1  0
  9 10  1  0
  8 11  1  0
 11 12  2  0
 11 13  1  0
  6  2  1  0
M  END
>  <id>  (456) 
98b27668-cd5d-4ed1-9abe-c81080275d36

>  <Version>  (456) 
0

>  <Alias>  (456) 
4MeODZ

>  <Type>  (456) 
amino_acid

>  <Smiles>  (456) 
Cc1nonc1CC(N[*:1])C(=O)[*:2]

>  <ProtectedSmiles>  (456) 
Cc1nonc1CC(NC(=O)OCC1c2ccccc2-c2ccccc21)C(=O)O

>  <CAS>  (456) 
1922779-47-2

>  <User>  (456) 
sevan.h

>  <StereoComment>  (456) 
as drawn

>  <Name>  (456) 
2-(9H-fluoren-9-ylmethoxycarbonylamino)-3-(4-methyl-1,2,5-oxadiazol-3-yl)propanoic acid

>  <Code>  (456) 
4MeODZ

>  <AliasLowerCase>  (456) 
4meodz

>  <LatestVersion>  (456) 
0.0

>  <createdAt>  (456) 
2026-01-14T12:15:21.176Z

>  <updatedAt>  (456) 
2026-01-14T12:15:21.176Z

>  <NumRotatableBonds>  (456) 
4

>  <is_N_methyl>  (456) 
False

>  <is_a_methyl>  (456) 
False

>  <is_alpha_aa>  (456) 
True

>  <is_beta_aa>  (456) 
False

>  <is_S100_aa>  (456) 
False

>  <Murcko_SMILES>  (456) 
c1cnon1

$$$$

     RDKit          2D

 10 10  0  0  0  0  0  0  0  0999 V2000
    3.7500    1.2990    0.0000 O   0  0  0  0  0  0  0  0  0  0  0  0
    3.0000    0.0000    0.0000 C   0  0  0  0  0  0  0  0  0  0  0  0
    1.5000    0.0000    0.0000 C   0  0  0  0  0  0  0  0  0  0  0  0
    0.7500   -1.2990    0.0000 C   0  0  0  0  0  0  0  0  0  0  0  0
   -0.7500   -1.2990    0.0000 C   0  0  0  0  0  0  0  0  0  0  0  0
   -1.5000    0.0000    0.0000 C   0  0  0  0  0  0  0  0  0  0  0  0
   -0.7500    1.2990    0.0000 C   0  0  0  0  0  0  0  0  0  0  0  0
    0.7500    1.2990    0.0000 N   0  0  0  0  0  0  0  0  0  0  0  0
    1.5000    2.5981    0.0000 R   0  0  0  0  0  1  0  0  0  1  0  0
    3.7500   -1.2990    0.0000 R   0  0  0  0  0  1  0  0  0  2  0  0
  1  2  2  0
  3  2  1  6
  3  4  1  0
  4  5  1  0
  5  6  1  0
  6  7  1  0
  7  8  1  0
  8  9  1  0
  2 10  1  0
  8  3  1  0
M  END
>  <id>  (457) 
0e678484-e2ae-421e-8654-8198483d295d

>  <Version>  (457) 
0

>  <Alias>  (457) 
Pip

>  <Type>  (457) 
amino_acid

>  <Smiles>  (457) 
O=C([C@@H]1CCCCN1[*:1])[*:2]

>  <ProtectedSmiles>  (457) 
O=C(O)[C@@H]1CCCCN1C(=O)OCC1c2ccccc2-c2ccccc21

>  <CAS>  (457) 
86069-86-5

>  <User>  (457) 
sevan.h

>  <StereoComment>  (457) 
as drawn

>  <Name>  (457) 
Fmoc-L-pipecolic acid

>  <Code>  (457) 
Pip

>  <AliasLowerCase>  (457) 
pip

>  <LatestVersion>  (457) 
0.0

>  <createdAt>  (457) 
2026-01-14T12:17:08.938Z

>  <updatedAt>  (457) 
2026-01-14T12:17:08.938Z

>  <NumRotatableBonds>  (457) 
1

>  <is_N_methyl>  (457) 
False

>  <is_a_methyl>  (457) 
False

>  <is_alpha_aa>  (457) 
True

>  <is_beta_aa>  (457) 
False

>  <is_S100_aa>  (457) 
False

>  <Murcko_SMILES>  (457) 
C1CCNCC1

$$$$

     RDKit          2D

 13 12  0  0  0  0  0  0  0  0999 V2000
   10.3923   -0.0000    0.0000 N   0  0  0  0  0  0  0  0  0  0  0  0
    9.0933    0.7500    0.0000 C   0  0  0  0  0  0  0  0  0  0  0  0
    9.0933    2.2500    0.0000 N   0  0  0  0  0  0  0  0  0  0  0  0
    7.7942   -0.0000    0.0000 N   0  0  0  0  0  0  0  0  0  0  0  0
    6.4952    0.7500    0.0000 C   0  0  0  0  0  0  0  0  0  0  0  0
    5.1962   -0.0000    0.0000 C   0  0  0  0  0  0  0  0  0  0  0  0
    3.8971    0.7500    0.0000 C   0  0  0  0  0  0  0  0  0  0  0  0
    2.5981   -0.0000    0.0000 C   0  0  0  0  0  0  0  0  0  0  0  0
    1.2990    0.7500    0.0000 N   0  0  0  0  0  0  0  0  0  0  0  0
    0.0000    0.0000    0.0000 R   0  0  0  0  0  1  0  0  0  1  0  0
    2.5981   -1.5000    0.0000 C   0  0  0  0  0  0  0  0  0  0  0  0
    1.2990   -2.2500    0.0000 O   0  0  0  0  0  0  0  0  0  0  0  0
    3.8971   -2.2500    0.0000 R   0  0  0  0  0  1  0  0  0  2  0  0
  1  2  1  0
  2  3  1  0
  2  4  2  0
  4  5  1  0
  5  6  1  0
  6  7  1  0
  7  8  1  0
  8  9  1  0
  9 10  1  0
  8 11  1  0
 11 12  2  0
 11 13  1  0
M  END
>  <id>  (458) 
789a1348-2da3-4aea-b904-85102840014d

>  <Version>  (458) 
0

>  <Alias>  (458) 
racArg(Pbf)

>  <Type>  (458) 
amino_acid

>  <Smiles>  (458) 
NC(N)=NCCCC(N[*:1])C(=O)[*:2]

>  <ProtectedSmiles>  (458) 
Cc1c(C)c(S(=O)(=O)N/C(N)=N/CCCC(NC(=O)OCC2c3ccccc3-c3ccccc32)C(=O)O)c(C)c2c1OC(C)(C)C2

>  <CAS>  (458) 
1809177-30-7

>  <User>  (458) 
mischa.s

>  <StereoComment>  (458) 
as drawn

>  <Name>  (458) 
Fmoc-rac-Arg(Pbf)-OH

>  <Code>  (458) 
racArg(Pbf)

>  <AliasLowerCase>  (458) 
racarg(pbf)

>  <LatestVersion>  (458) 
0.0

>  <createdAt>  (458) 
2026-01-14T11:38:30.042Z

>  <updatedAt>  (458) 
2026-01-14T11:38:30.042Z

>  <NumRotatableBonds>  (458) 
6

>  <is_N_methyl>  (458) 
False

>  <is_a_methyl>  (458) 
False

>  <is_alpha_aa>  (458) 
True

>  <is_beta_aa>  (458) 
False

>  <is_S100_aa>  (458) 
False

>  <Murcko_SMILES>  (458) 


$$$$

     RDKit          2D

 13 13  0  0  0  0  0  0  0  0999 V2000
    1.2760   -2.5981    0.0000 O   0  0  0  0  0  0  0  0  0  0  0  0
    2.7760   -2.5981    0.0000 C   0  0  0  0  0  0  0  0  0  0  0  0
    3.5260   -1.2990    0.0000 C   0  0  0  0  0  0  0  0  0  0  0  0
    5.0260   -1.2990    0.0000 C   0  0  0  0  0  0  0  0  0  0  0  0
    5.7760   -2.5981    0.0000 N   0  0  0  0  0  0  0  0  0  0  0  0
    7.2760   -2.5981    0.0000 R   0  0  0  0  0  1  0  0  0  1  0  0
    2.7760    0.0000    0.0000 C   0  0  0  0  0  0  0  0  0  0  0  0
    1.2760    0.0000    0.0000 C   0  0  0  0  0  0  0  0  0  0  0  0
    0.3943    1.2135    0.0000 C   0  0  0  0  0  0  0  0  0  0  0  0
   -1.0323    0.7500    0.0000 C   0  0  0  0  0  0  0  0  0  0  0  0
   -1.0323   -0.7500    0.0000 C   0  0  0  0  0  0  0  0  0  0  0  0
    0.3943   -1.2135    0.0000 C   0  0  0  0  0  0  0  0  0  0  0  0
    3.5260   -3.8971    0.0000 R   0  0  0  0  0  1  0  0  0  2  0  0
  1  2  2  0
  2  3  1  0
  3  4  1  0
  4  5  1  0
  5  6  1  0
  3  7  1  0
  7  8  1  0
  8  9  1  0
  9 10  1  0
 10 11  1  0
 11 12  1  0
  2 13  1  0
 12  8  1  0
M  END
>  <id>  (459) 
8ac2b82b-2c3e-48fb-90aa-67aa25229303

>  <Version>  (459) 
0

>  <Alias>  (459) 
CPMPrPA

>  <Type>  (459) 
amino_acid

>  <Smiles>  (459) 
O=C(C(CN[*:1])CC1CCCC1)[*:2]

>  <ProtectedSmiles>  (459) 
O=C(NCC(CC1CCCC1)C(=O)O)OCC1c2ccccc2-c2ccccc21

>  <CAS>  (459) 
1823505-47-0

>  <User>  (459) 
Sevan.habeshian@orbismedicines.com

>  <StereoComment>  (459) 
as drawn

>  <Name>  (459) 
N/A

>  <Code>  (459) 
CPMPrPA

>  <AliasLowerCase>  (459) 
cpmprpa

>  <LatestVersion>  (459) 
0.0

>  <createdAt>  (459) 
2026-02-13T09:56:35.392Z

>  <updatedAt>  (459) 
2026-02-13T09:56:35.392Z

>  <NumRotatableBonds>  (459) 
5

>  <is_N_methyl>  (459) 
False

>  <is_a_methyl>  (459) 
False

>  <is_alpha_aa>  (459) 
False

>  <is_beta_aa>  (459) 
True

>  <is_S100_aa>  (459) 
False

>  <Murcko_SMILES>  (459) 
C1CCCC1

$$$$

     RDKit          2D

 10 11  0  0  0  0  0  0  0  0999 V2000
   -3.7903    2.9520    0.0000 O   0  0  0  0  0  0  0  0  0  0  0  0
   -2.3231    2.6401    0.0000 C   0  0  0  0  0  0  0  0  0  0  0  0
   -1.8596    1.2135    0.0000 C   0  0  0  0  0  0  0  0  0  0  0  0
   -0.4330    0.7500    0.0000 C   0  0  0  0  0  0  0  0  0  0  0  0
    0.8660    0.0000    0.0000 C   0  0  0  0  0  0  0  0  0  0  0  0
   -0.4330   -0.7500    0.0000 C   0  0  0  0  0  0  0  0  0  0  0  0
   -1.8596   -1.2135    0.0000 C   0  0  0  0  0  0  0  0  0  0  0  0
   -2.7413    0.0000    0.0000 N   0  0  0  0  0  0  0  0  0  0  0  0
   -4.2413    0.0000    0.0000 R   0  0  0  0  0  1  0  0  0  1  0  0
   -1.3194    3.7548    0.0000 R   0  0  0  0  0  1  0  0  0  2  0  0
  1  2  2  0
  3  2  1  6
  3  4  1  0
  4  5  1  0
  5  6  1  0
  6  7  1  0
  7  8  1  0
  8  9  1  0
  2 10  1  0
  8  3  1  0
  6  4  1  0
M  END
>  <id>  (460) 
06f057ca-d348-43ac-845b-181e764a427d

>  <Version>  (460) 
0

>  <Alias>  (460) 
3azabicycloHex

>  <Type>  (460) 
amino_acid

>  <Smiles>  (460) 
O=C([C@@H]1C2CC2CN1[*:1])[*:2]

>  <ProtectedSmiles>  (460) 
O=C(O)[C@@H]1C2CC2CN1C(=O)OCC1c2ccccc2-c2ccccc21

>  <CAS>  (460) 
2382052-27-7

>  <User>  (460) 
alice.granger@orbismedicines.com

>  <StereoComment>  (460) 
as drawn

>  <Name>  (460) 
(1R,2R,5S)-3-(9H-fluoren-9-ylmethoxycarbonyl)-3-azabicyclo[3.1.0]hexane-2-c

>  <Code>  (460) 
3azabicycloHex

>  <AliasLowerCase>  (460) 
3azabicyclohex

>  <LatestVersion>  (460) 
0.0

>  <createdAt>  (460) 
2026-03-11T10:37:04.548Z

>  <updatedAt>  (460) 
2026-03-11T10:37:04.548Z

>  <NumRotatableBonds>  (460) 
1

>  <is_N_methyl>  (460) 
False

>  <is_a_methyl>  (460) 
False

>  <is_alpha_aa>  (460) 
True

>  <is_beta_aa>  (460) 
False

>  <is_S100_aa>  (460) 
False

>  <Murcko_SMILES>  (460) 
C1NCC2CC12

$$$$

     RDKit          2D

 10  9  0  0  0  0  0  0  0  0999 V2000
    4.6471   -0.5490    0.0000 C   0  0  0  0  0  0  0  0  0  0  0  0
    3.8971    0.7500    0.0000 C   0  0  0  0  0  0  0  0  0  0  0  0
    3.1471    2.0490    0.0000 C   0  0  0  0  0  0  0  0  0  0  0  0
    2.5981   -0.0000    0.0000 C   0  0  0  0  0  0  0  0  0  0  0  0
    1.2990    0.7500    0.0000 N   0  0  0  0  0  0  0  0  0  0  0  0
    0.0000    0.0000    0.0000 R   0  0  0  0  0  1  0  0  0  1  0  0
    5.1962    1.5000    0.0000 C   0  0  0  0  0  0  0  0  0  0  0  0
    5.1962    3.0000    0.0000 C   0  0  0  0  0  0  0  0  0  0  0  0
    3.8971    3.7500    0.0000 O   0  0  0  0  0  0  0  0  0  0  0  0
    6.4952    3.7500    0.0000 R   0  0  0  0  0  1  0  0  0  2  0  0
  1  2  1  0
  2  3  1  0
  2  4  1  0
  4  5  1  0
  5  6  1  0
  2  7  1  0
  7  8  1  0
  8  9  2  0
  8 10  1  0
M  END
>  <id>  (461) 
be4cc0c8-c72d-4cf5-a1cb-f0dcb2450f34

>  <Version>  (461) 
0

>  <Alias>  (461) 
3,3-diMeBA

>  <Type>  (461) 
amino_acid

>  <Smiles>  (461) 
CC(C)(CN[*:1])CC(=O)[*:2]

>  <ProtectedSmiles>  (461) 
CC(C)(CNC(=O)OCC1c2ccccc2-c2ccccc21)CC(=O)O

>  <CAS>  (461) 
1310680-27-3

>  <User>  (461) 
Sevan.habeshian@orbismedicines.com

>  <StereoComment>  (461) 
as drawn

>  <Name>  (461) 
N/A

>  <Code>  (461) 
3,3-diMeBA

>  <AliasLowerCase>  (461) 
3,3-dimeba

>  <LatestVersion>  (461) 
0.0

>  <createdAt>  (461) 
2026-02-13T09:56:35.394Z

>  <updatedAt>  (461) 
2026-02-13T09:56:35.394Z

>  <NumRotatableBonds>  (461) 
4

>  <is_N_methyl>  (461) 
False

>  <is_a_methyl>  (461) 
False

>  <is_alpha_aa>  (461) 
False

>  <is_beta_aa>  (461) 
False

>  <is_S100_aa>  (461) 
False

>  <Murcko_SMILES>  (461) 


$$$$

     RDKit          2D

 10  9  0  0  0  0  0  0  0  0999 V2000
    4.6471   -0.5490    0.0000 C   0  0  0  0  0  0  0  0  0  0  0  0
    3.8971    0.7500    0.0000 C   0  0  0  0  0  0  0  0  0  0  0  0
    3.1471    2.0490    0.0000 C   0  0  0  0  0  0  0  0  0  0  0  0
    5.1962    1.5000    0.0000 C   0  0  0  0  0  0  0  0  0  0  0  0
    2.5981   -0.0000    0.0000 C   0  0  0  0  0  0  0  0  0  0  0  0
    1.2990    0.7500    0.0000 N   0  0  0  0  0  0  0  0  0  0  0  0
    0.0000    0.0000    0.0000 R   0  0  0  0  0  1  0  0  0  1  0  0
    2.5981   -1.5000    0.0000 C   0  0  0  0  0  0  0  0  0  0  0  0
    1.2990   -2.2500    0.0000 O   0  0  0  0  0  0  0  0  0  0  0  0
    3.8971   -2.2500    0.0000 R   0  0  0  0  0  1  0  0  0  2  0  0
  1  2  1  0
  2  3  1  0
  2  4  1  0
  2  5  1  0
  5  6  1  6
  6  7  1  0
  5  8  1  0
  8  9  2  0
  8 10  1  0
M  END
>  <id>  (462) 
7f1c92ea-36f4-4e3f-b5cd-fcec7273757f

>  <Version>  (462) 
0

>  <Alias>  (462) 
D-Tle

>  <Type>  (462) 
amino_acid

>  <Smiles>  (462) 
CC(C)(C)[C@@H](N[*:1])C(=O)[*:2]

>  <ProtectedSmiles>  (462) 
CC(C)(C)[C@@H](NC(=O)OCC1c2ccccc2-c2ccccc21)C(=O)O

>  <CAS>  (462) 
198543-64-5

>  <User>  (462) 
sevan.h

>  <StereoComment>  (462) 
as drawn

>  <Name>  (462) 
Fmoc-D-Tle-OH

>  <Code>  (462) 
D-Tle

>  <AliasLowerCase>  (462) 
d-tle

>  <LatestVersion>  (462) 
0.0

>  <createdAt>  (462) 
2026-01-14T12:15:37.442Z

>  <updatedAt>  (462) 
2026-01-14T12:15:37.442Z

>  <NumRotatableBonds>  (462) 
2

>  <is_N_methyl>  (462) 
False

>  <is_a_methyl>  (462) 
False

>  <is_alpha_aa>  (462) 
True

>  <is_beta_aa>  (462) 
False

>  <is_S100_aa>  (462) 
False

>  <Murcko_SMILES>  (462) 


$$$$

     RDKit          2D

 12 13  0  0  0  0  0  0  0  0999 V2000
    2.1328    3.1443    0.0000 O   0  0  0  0  0  0  0  0  0  0  0  0
    1.8209    1.6771    0.0000 C   0  0  0  0  0  0  0  0  0  0  0  0
    0.3943    1.2135    0.0000 C   0  0  0  0  0  0  0  0  0  0  0  0
    1.2760    0.0000    0.0000 C   0  0  0  0  0  0  0  0  0  0  0  0
    0.3943   -1.2135    0.0000 C   0  0  0  0  0  0  0  0  0  0  0  0
   -1.0323   -0.7500    0.0000 C   0  0  0  0  0  0  0  0  0  0  0  0
   -1.0323    0.7500    0.0000 C   0  0  0  0  0  0  0  0  0  0  0  0
   -1.9140    1.9635    0.0000 C   0  0  0  0  0  0  0  0  0  0  0  0
   -1.0323    3.1771    0.0000 N   0  0  0  0  0  0  0  0  0  0  0  0
   -1.4958    4.6036    0.0000 R   0  0  0  0  0  1  0  0  0  1  0  0
    0.3943    2.7135    0.0000 C   0  0  0  0  0  0  0  0  0  0  0  0
    2.9356    0.6734    0.0000 R   0  0  0  0  0  1  0  0  0  2  0  0
  1  2  2  0
  3  2  1  6
  3  4  1  0
  4  5  1  0
  5  6  1  0
  7  6  1  1
  7  8  1  0
  8  9  1  0
  9 10  1  0
  9 11  1  0
  2 12  1  0
  7  3  1  0
 11  3  1  0
M  END
>  <id>  (463) 
8306bc61-76b1-4975-8b82-ad2aecfdd42b

>  <Version>  (463) 
0

>  <Alias>  (463) 
(3aR,6aR)CycPentPyrCA

>  <Type>  (463) 
amino_acid

>  <Smiles>  (463) 
O=C([C@]12CCC[C@H]1CN([*:1])C2)[*:2]

>  <ProtectedSmiles>  (463) 
O=C(OCC1c2ccccc2-c2ccccc21)N1C[C@@H]2CCC[C@]2(C(=O)O)C1

>  <CAS>  (463) 
2089245-86-1

>  <User>  (463) 
Sevan.habeshian@orbismedicines.com

>  <StereoComment>  (463) 
as drawn

>  <Name>  (463) 
N/A

>  <Code>  (463) 
(3aR,6aR)CycPentPyrCA

>  <AliasLowerCase>  (463) 
(3ar,6ar)cycpentpyrca

>  <LatestVersion>  (463) 
0.0

>  <createdAt>  (463) 
2026-02-13T09:56:35.489Z

>  <updatedAt>  (463) 
2026-02-13T09:56:35.489Z

>  <NumRotatableBonds>  (463) 
1

>  <is_N_methyl>  (463) 
False

>  <is_a_methyl>  (463) 
False

>  <is_alpha_aa>  (463) 
False

>  <is_beta_aa>  (463) 
True

>  <is_S100_aa>  (463) 
False

>  <Murcko_SMILES>  (463) 
C1CC2CNC[C@@H]2C1

$$$$

     RDKit          2D

  9  8  0  0  0  0  0  0  0  0999 V2000
    1.2990   -2.2500    0.0000 O   0  0  0  0  0  0  0  0  0  0  0  0
    2.5981   -1.5000    0.0000 C   0  0  0  0  0  0  0  0  0  0  0  0
    2.5981   -0.0000    0.0000 C   0  0  0  0  0  0  0  0  0  0  0  0
    3.8971    0.7500    0.0000 C   0  0  0  0  0  0  0  0  0  0  0  0
    5.1962   -0.0000    0.0000 C   0  0  0  0  0  0  0  0  0  0  0  0
    6.4952    0.7500    0.0000 O   0  0  0  0  0  0  0  0  0  0  0  0
    1.2990    0.7500    0.0000 N   0  0  0  0  0  0  0  0  0  0  0  0
    0.0000    0.0000    0.0000 R   0  0  0  0  0  1  0  0  0  1  0  0
    3.8971   -2.2500    0.0000 R   0  0  0  0  0  1  0  0  0  2  0  0
  1  2  2  0
  2  3  1  0
  3  4  1  0
  4  5  1  0
  5  6  1  0
  3  7  1  0
  7  8  1  0
  2  9  1  0
M  END
>  <id>  (464) 
b4f61638-dd13-4ef1-b8fd-77228b2112ae

>  <Version>  (464) 
0

>  <Alias>  (464) 
rac-hSer_UP

>  <Type>  (464) 
amino_acid

>  <Smiles>  (464) 
O=C(C(CCO)N[*:1])[*:2]

>  <ProtectedSmiles>  (464) 
O=C(NC(CCO)C(=O)O)OCC1c2ccccc2-c2ccccc21

>  <CAS>  (464) 
161125-35-5

>  <User>  (464) 
Sevan.habeshian@orbismedicines.com

>  <StereoComment>  (464) 
as drawn

>  <Name>  (464) 
N/A

>  <Code>  (464) 
rac-hSer_UP

>  <AliasLowerCase>  (464) 
rac-hser_up

>  <LatestVersion>  (464) 
0.0

>  <createdAt>  (464) 
2026-02-13T09:56:35.393Z

>  <updatedAt>  (464) 
2026-02-13T09:56:35.393Z

>  <NumRotatableBonds>  (464) 
4

>  <is_N_methyl>  (464) 
False

>  <is_a_methyl>  (464) 
False

>  <is_alpha_aa>  (464) 
True

>  <is_beta_aa>  (464) 
False

>  <is_S100_aa>  (464) 
False

>  <Murcko_SMILES>  (464) 


$$$$

     RDKit          2D

 12 12  0  0  0  0  0  0  0  0999 V2000
    4.0586   -0.4512    0.0000 O   0  0  0  0  0  0  0  0  0  0  0  0
    2.6491   -0.9642    0.0000 C   0  0  0  0  0  0  0  0  0  0  0  0
    1.5000    0.0000    0.0000 C   0  0  0  0  0  0  0  0  0  0  0  0
    2.6491    0.9642    0.0000 C   0  0  0  0  0  0  0  0  0  0  0  0
    2.3886    2.4414    0.0000 N   0  0  0  0  0  0  0  0  0  0  0  0
    3.5377    3.4056    0.0000 R   0  0  0  0  0  1  0  0  0  1  0  0
    0.7500   -1.2990    0.0000 C   0  0  0  0  0  0  0  0  0  0  0  0
   -0.7500   -1.2990    0.0000 C   0  0  0  0  0  0  0  0  0  0  0  0
   -1.5000    0.0000    0.0000 O   0  0  0  0  0  0  0  0  0  0  0  0
   -0.7500    1.2990    0.0000 C   0  0  0  0  0  0  0  0  0  0  0  0
    0.7500    1.2990    0.0000 C   0  0  0  0  0  0  0  0  0  0  0  0
    2.3886   -2.4414    0.0000 R   0  0  0  0  0  1  0  0  0  2  0  0
  1  2  2  0
  2  3  1  0
  3  4  1  0
  4  5  1  0
  5  6  1  0
  3  7  1  0
  7  8  1  0
  8  9  1  0
  9 10  1  0
 10 11  1  0
  2 12  1  0
 11  3  1  0
M  END
>  <id>  (465) 
34868a0e-2124-4376-9e52-17e7e8d8fbaa

>  <Version>  (465) 
0

>  <Alias>  (465) 
4AMTHP

>  <Type>  (465) 
amino_acid

>  <Smiles>  (465) 
O=C(C1(CN[*:1])CCOCC1)[*:2]

>  <ProtectedSmiles>  (465) 
O=C(NCC1(C(=O)O)CCOCC1)OCC1c2ccccc2-c2ccccc21

>  <CAS>  (465) 
946716-29-6

>  <User>  (465) 
mischa.s

>  <StereoComment>  (465) 
as drawn

>  <Name>  (465) 
4-[({[(9H-fluoren-9-yl)methoxy]carbonyl}amino)methyl]oxane-4-carboxylic acid

>  <Code>  (465) 
4AMTHP

>  <AliasLowerCase>  (465) 
4amthp

>  <LatestVersion>  (465) 
0.0

>  <createdAt>  (465) 
2026-01-14T11:33:03.595Z

>  <updatedAt>  (465) 
2026-01-14T11:33:03.595Z

>  <NumRotatableBonds>  (465) 
3

>  <is_N_methyl>  (465) 
False

>  <is_a_methyl>  (465) 
False

>  <is_alpha_aa>  (465) 
False

>  <is_beta_aa>  (465) 
True

>  <is_S100_aa>  (465) 
False

>  <Murcko_SMILES>  (465) 
C1CCOCC1

$$$$

     RDKit          2D

 11 11  0  0  0  0  0  0  0  0999 V2000
    2.3907    1.0037    0.0000 C   0  0  0  0  0  0  0  0  0  0  0  0
    1.2760    0.0000    0.0000 C   0  0  0  0  0  0  0  0  0  0  0  0
    2.3907   -1.0037    0.0000 C   0  0  0  0  0  0  0  0  0  0  0  0
    0.3943    1.2135    0.0000 C   0  0  0  0  0  0  0  0  0  0  0  0
   -1.0323    0.7500    0.0000 C   0  0  0  0  0  0  0  0  0  0  0  0
   -2.2458    1.6317    0.0000 C   0  0  0  0  0  0  0  0  0  0  0  0
   -3.6161    1.0216    0.0000 O   0  0  0  0  0  0  0  0  0  0  0  0
   -2.0890    3.1235    0.0000 R   0  0  0  0  0  1  0  0  0  2  0  0
   -1.0323   -0.7500    0.0000 N   0  0  0  0  0  0  0  0  0  0  0  0
   -2.2458   -1.6317    0.0000 R   0  0  0  0  0  1  0  0  0  1  0  0
    0.3943   -1.2135    0.0000 C   0  0  0  0  0  0  0  0  0  0  0  0
  1  2  1  0
  2  3  1  0
  2  4  1  0
  4  5  1  0
  5  6  1  6
  6  7  2  0
  6  8  1  0
  5  9  1  0
  9 10  1  0
  9 11  1  0
 11  2  1  0
M  END
>  <id>  (466) 
b7609b45-0bbe-4022-ae19-fca803e1263d

>  <Version>  (466) 
0

>  <Alias>  (466) 
(S)-4,4diMePro

>  <Type>  (466) 
amino_acid

>  <Smiles>  (466) 
CC1(C)C[C@@H](C(=O)[*:2])N([*:1])C1

>  <ProtectedSmiles>  (466) 
CC1(C)C[C@@H](C(=O)O)N(C(=O)OCC2c3ccccc3-c3ccccc32)C1

>  <CAS>  (466) 
1380336-01-5

>  <User>  (466) 
mischa.s

>  <StereoComment>  (466) 
as drawn

>  <Name>  (466) 
(S)-1-(((9H-fluoren-9-yl)methoxy)carbonyl)-4,4-dimethylpyrrolidine-2-carboxylic acid

>  <Code>  (466) 
(S)-4,4diMePro

>  <AliasLowerCase>  (466) 
(s)-4,4dimepro

>  <LatestVersion>  (466) 
0.0

>  <createdAt>  (466) 
2026-01-14T11:33:22.643Z

>  <updatedAt>  (466) 
2026-01-14T11:33:22.643Z

>  <NumRotatableBonds>  (466) 
1

>  <is_N_methyl>  (466) 
False

>  <is_a_methyl>  (466) 
False

>  <is_alpha_aa>  (466) 
True

>  <is_beta_aa>  (466) 
False

>  <is_S100_aa>  (466) 
False

>  <Murcko_SMILES>  (466) 
C1CCNC1

$$$$

     RDKit          2D

 15 15  0  0  0  0  0  0  0  0999 V2000
    4.5000    0.0000    0.0000 N   0  0  0  0  0  0  0  0  0  0  0  0
    3.0000    0.0000    0.0000 C   0  0  0  0  0  0  0  0  0  0  0  0
    1.5000    0.0000    0.0000 C   0  0  0  0  0  0  0  0  0  0  0  0
    0.7500   -1.2990    0.0000 C   0  0  0  0  0  0  0  0  0  0  0  0
   -0.7500   -1.2990    0.0000 C   0  0  0  0  0  0  0  0  0  0  0  0
   -1.5000    0.0000    0.0000 C   0  0  0  0  0  0  0  0  0  0  0  0
   -0.7500    1.2990    0.0000 C   0  0  0  0  0  0  0  0  0  0  0  0
    0.7500    1.2990    0.0000 C   0  0  0  0  0  0  0  0  0  0  0  0
    1.5000    2.5981    0.0000 C   0  0  0  0  0  0  0  0  0  0  0  0
    3.0000    2.5981    0.0000 C   0  0  0  0  0  0  0  0  0  0  0  0
    3.7500    1.2990    0.0000 N   0  0  0  0  0  0  0  0  0  0  0  0
    5.2500    1.2990    0.0000 R   0  0  0  0  0  1  0  0  0  1  0  0
    3.7500    3.8971    0.0000 C   0  0  0  0  0  0  0  0  0  0  0  0
    3.0000    5.1962    0.0000 O   0  0  0  0  0  0  0  0  0  0  0  0
    5.2500    3.8971    0.0000 R   0  0  0  0  0  1  0  0  0  2  0  0
  1  2  3  0
  2  3  1  0
  3  4  2  0
  4  5  1  0
  5  6  2  0
  6  7  1  0
  7  8  2  0
  8  9  1  0
 10  9  1  1
 10 11  1  0
 11 12  1  0
 10 13  1  0
 13 14  2  0
 13 15  1  0
  8  3  1  0
M  END
>  <id>  (467) 
f6eb5e96-0c38-4778-8ca1-02a7bd514be0

>  <Version>  (467) 
0

>  <Alias>  (467) 
2CNPhe

>  <Type>  (467) 
amino_acid

>  <Smiles>  (467) 
N#Cc1ccccc1C[C@H](N[*:1])C(=O)[*:2]

>  <ProtectedSmiles>  (467) 
N#Cc1ccccc1C[C@H](NC(=O)OCC1c2ccccc2-c2ccccc21)C(=O)O

>  <CAS>  (467) 
401933-16-2

>  <User>  (467) 
mischa.s

>  <StereoComment>  (467) 
as drawn

>  <Name>  (467) 
(S)-2-((((9H-Fluoren-9-yl)methoxy)carbonyl)amino)-3-(2-cyanophenyl)propanoic acid

>  <Code>  (467) 
2CNPhe

>  <AliasLowerCase>  (467) 
2cnphe

>  <LatestVersion>  (467) 
0.0

>  <createdAt>  (467) 
2026-01-14T11:34:53.346Z

>  <updatedAt>  (467) 
2026-01-14T11:34:53.346Z

>  <NumRotatableBonds>  (467) 
4

>  <is_N_methyl>  (467) 
False

>  <is_a_methyl>  (467) 
False

>  <is_alpha_aa>  (467) 
True

>  <is_beta_aa>  (467) 
False

>  <is_S100_aa>  (467) 
False

>  <Murcko_SMILES>  (467) 
c1ccccc1

$$$$

     RDKit          2D

 15 15  0  0  0  0  0  0  0  0999 V2000
    8.2500   -1.2990    0.0000 O   0  0  0  0  0  0  0  0  0  0  0  0
    7.5000   -2.5981    0.0000 C   0  0  0  0  0  0  0  0  0  0  0  0
    6.0000   -2.5981    0.0000 C   0  0  0  0  0  0  0  0  0  0  0  0
    5.2500   -1.2990    0.0000 C   0  0  0  0  0  0  0  0  0  0  0  0
    3.7500   -1.2990    0.0000 C   0  0  0  0  0  0  0  0  0  0  0  0
    3.0000    0.0000    0.0000 C   0  0  0  0  0  0  0  0  0  0  0  0
    1.5000    0.0000    0.0000 C   0  0  0  0  0  0  0  0  0  0  0  0
    0.7500   -1.2990    0.0000 C   0  0  0  0  0  0  0  0  0  0  0  0
   -0.7500   -1.2990    0.0000 C   0  0  0  0  0  0  0  0  0  0  0  0
   -1.5000    0.0000    0.0000 C   0  0  0  0  0  0  0  0  0  0  0  0
   -0.7500    1.2990    0.0000 C   0  0  0  0  0  0  0  0  0  0  0  0
    0.7500    1.2990    0.0000 C   0  0  0  0  0  0  0  0  0  0  0  0
    5.2500   -3.8971    0.0000 N   0  0  0  0  0  0  0  0  0  0  0  0
    6.0000   -5.1962    0.0000 R   0  0  0  0  0  1  0  0  0  1  0  0
    8.2500   -3.8971    0.0000 R   0  0  0  0  0  1  0  0  0  2  0  0
  1  2  2  0
  2  3  1  0
  3  4  1  6
  4  5  1  0
  5  6  1  0
  6  7  1  0
  7  8  2  0
  8  9  1  0
  9 10  2  0
 10 11  1  0
 11 12  2  0
  3 13  1  0
 13 14  1  0
  2 15  1  0
 12  7  1  0
M  END
>  <id>  (468) 
c0a26508-e598-4d16-b103-e974f5380a50

>  <Version>  (468) 
0

>  <Alias>  (468) 
D-5PhePA

>  <Type>  (468) 
amino_acid

>  <Smiles>  (468) 
O=C([C@@H](CCCc1ccccc1)N[*:1])[*:2]

>  <ProtectedSmiles>  (468) 
O=C(N[C@H](CCCc1ccccc1)C(=O)O)OCC1c2ccccc2-c2ccccc21

>  <CAS>  (468) 
1217731-48-0

>  <User>  (468) 
angelica.l

>  <StereoComment>  (468) 
as drawn

>  <Name>  (468) 
(R)-2-((((9H-Fluoren-9-yl)methoxy)carbonyl)amino)-5-phenylpentanoic acid

>  <Code>  (468) 
D-5PhePA

>  <AliasLowerCase>  (468) 
d-5phepa

>  <LatestVersion>  (468) 
0.0

>  <createdAt>  (468) 
2026-01-14T11:35:46.216Z

>  <updatedAt>  (468) 
2026-01-14T11:35:46.216Z

>  <NumRotatableBonds>  (468) 
6

>  <is_N_methyl>  (468) 
False

>  <is_a_methyl>  (468) 
False

>  <is_alpha_aa>  (468) 
True

>  <is_beta_aa>  (468) 
False

>  <is_S100_aa>  (468) 
False

>  <Murcko_SMILES>  (468) 
c1ccccc1

$$$$

     RDKit          2D

  9  8  0  0  0  0  0  0  0  0999 V2000
    5.1962   -0.0000    0.0000 C   0  0  0  0  0  0  0  0  0  0  0  0
    3.8971    0.7500    0.0000 C   0  0  0  0  0  0  0  0  0  0  0  0
    3.8971    2.2500    0.0000 C   0  0  0  0  0  0  0  0  0  0  0  0
    2.5981   -0.0000    0.0000 C   0  0  0  0  0  0  0  0  0  0  0  0
    1.2990    0.7500    0.0000 N   0  0  0  0  0  0  0  0  0  0  0  0
    0.0000    0.0000    0.0000 R   0  0  0  0  0  1  0  0  0  1  0  0
    2.5981   -1.5000    0.0000 C   0  0  0  0  0  0  0  0  0  0  0  0
    1.2990   -2.2500    0.0000 O   0  0  0  0  0  0  0  0  0  0  0  0
    3.8971   -2.2500    0.0000 R   0  0  0  0  0  1  0  0  0  2  0  0
  1  2  1  0
  2  3  1  0
  2  4  1  0
  4  5  1  6
  5  6  1  0
  4  7  1  0
  7  8  2  0
  7  9  1  0
M  END
>  <id>  (469) 
03e6e854-19ba-4b02-9aac-633d486ee0d7

>  <Version>  (469) 
0

>  <Alias>  (469) 
D-Val

>  <Type>  (469) 
amino_acid

>  <Smiles>  (469) 
CC(C)[C@@H](N[*:1])C(=O)[*:2]

>  <ProtectedSmiles>  (469) 
CC(C)[C@@H](NC(=O)OCC1c2ccccc2-c2ccccc21)C(=O)O

>  <CAS>  (469) 
84624-17-9

>  <User>  (469) 
sevan.h

>  <StereoComment>  (469) 
as drawn

>  <Name>  (469) 
Fmoc-D-Val-OH

>  <Code>  (469) 
D-Val

>  <AliasLowerCase>  (469) 
d-val

>  <LatestVersion>  (469) 
0.0

>  <createdAt>  (469) 
2026-01-14T12:17:12.900Z

>  <updatedAt>  (469) 
2026-01-14T12:17:12.900Z

>  <NumRotatableBonds>  (469) 
3

>  <is_N_methyl>  (469) 
False

>  <is_a_methyl>  (469) 
False

>  <is_alpha_aa>  (469) 
True

>  <is_beta_aa>  (469) 
False

>  <is_S100_aa>  (469) 
False

>  <Murcko_SMILES>  (469) 


$$$$

     RDKit          2D

 15 15  0  0  0  0  0  0  0  0999 V2000
    4.5000    0.0000    0.0000 N   0  0  0  0  0  0  0  0  0  0  0  0
    3.0000    0.0000    0.0000 C   0  0  0  0  0  0  0  0  0  0  0  0
    1.5000    0.0000    0.0000 C   0  0  0  0  0  0  0  0  0  0  0  0
    0.7500   -1.2990    0.0000 C   0  0  0  0  0  0  0  0  0  0  0  0
   -0.7500   -1.2990    0.0000 C   0  0  0  0  0  0  0  0  0  0  0  0
   -1.5000    0.0000    0.0000 C   0  0  0  0  0  0  0  0  0  0  0  0
   -3.0000    0.0000    0.0000 C   0  0  0  0  0  0  0  0  0  0  0  0
   -3.7500    1.2990    0.0000 C   0  0  0  0  0  0  0  0  0  0  0  0
   -5.2500    1.2990    0.0000 C   0  0  0  0  0  0  0  0  0  0  0  0
   -6.0000   -0.0000    0.0000 O   0  0  0  0  0  0  0  0  0  0  0  0
   -6.0000    2.5981    0.0000 R   0  0  0  0  0  1  0  0  0  2  0  0
   -3.7500   -1.2990    0.0000 N   0  0  0  0  0  0  0  0  0  0  0  0
   -5.2500   -1.2990    0.0000 R   0  0  0  0  0  1  0  0  0  1  0  0
   -0.7500    1.2990    0.0000 C   0  0  0  0  0  0  0  0  0  0  0  0
    0.7500    1.2990    0.0000 C   0  0  0  0  0  0  0  0  0  0  0  0
  1  2  3  0
  2  3  1  0
  3  4  2  0
  4  5  1  0
  5  6  2  0
  6  7  1  0
  7  8  1  6
  8  9  1  0
  9 10  2  0
  9 11  1  0
  7 12  1  0
 12 13  1  0
  6 14  1  0
 14 15  2  0
 15  3  1  0
M  END
>  <id>  (470) 
b01155fd-59c3-42a6-8ce0-1b8bd9b745f9

>  <Version>  (470) 
0

>  <Alias>  (470) 
(3R)-(4CN)PhB-Ala

>  <Type>  (470) 
amino_acid

>  <Smiles>  (470) 
N#Cc1ccc([C@@H](CC(=O)[*:2])N[*:1])cc1

>  <ProtectedSmiles>  (470) 
N#Cc1ccc([C@@H](CC(=O)O)NC(=O)OCC2c3ccccc3-c3ccccc32)cc1

>  <CAS>  (470) 
517905-92-9

>  <User>  (470) 
mischa.s

>  <StereoComment>  (470) 
as drawn

>  <Name>  (470) 
(R)-3-((((9H-Fluoren-9-yl)methoxy)carbonyl)amino)-3-(4-cyanophenyl)propanoic acid

>  <Code>  (470) 
(3R)-(4CN)PhB-Ala

>  <AliasLowerCase>  (470) 
(3r)-(4cn)phb-ala

>  <LatestVersion>  (470) 
0.0

>  <createdAt>  (470) 
2026-01-14T11:33:27.219Z

>  <updatedAt>  (470) 
2026-01-14T11:33:27.219Z

>  <NumRotatableBonds>  (470) 
4

>  <is_N_methyl>  (470) 
False

>  <is_a_methyl>  (470) 
False

>  <is_alpha_aa>  (470) 
False

>  <is_beta_aa>  (470) 
True

>  <is_S100_aa>  (470) 
False

>  <Murcko_SMILES>  (470) 
c1ccccc1

$$$$

     RDKit          2D

  0  0  0  0  0  0  0  0  0  0999 V3000
M  V30 BEGIN CTAB
M  V30 COUNTS 17 18 0 0 0
M  V30 BEGIN ATOM
M  V30 1 C 3.750000 -1.299038 0.000000 0
M  V30 2 O 3.000000 0.000000 0.000000 0
M  V30 3 C 1.500000 0.000000 0.000000 0
M  V30 4 C 0.750000 -1.299038 0.000000 0
M  V30 5 C -0.750000 -1.299038 0.000000 0
M  V30 6 C -1.500000 0.000000 0.000000 0
M  V30 7 C -3.000000 0.000000 0.000000 0
M  V30 8 C -3.881678 -1.213525 0.000000 0
M  V30 9 N -5.308263 -0.750000 0.000000 0
M  V30 10 "NOT [H]" -6.521788 -1.631678 0.000000 1
M  V30 11 C -5.308263 0.750000 0.000000 0
M  V30 12 C -3.881678 1.213525 0.000000 0
M  V30 13 C -3.418152 2.640110 0.000000 0
M  V30 14 O -1.950931 2.951978 0.000000 0
M  V30 15 "NOT [H]" -4.421848 3.754828 0.000000 2
M  V30 16 C -0.750000 1.299038 0.000000 0
M  V30 17 C 0.750000 1.299038 0.000000 0
M  V30 END ATOM
M  V30 BEGIN BOND
M  V30 1 1 1 2
M  V30 2 1 2 3
M  V30 3 2 3 4
M  V30 4 1 4 5
M  V30 5 2 5 6
M  V30 6 1 7 6 CFG=3
M  V30 7 1 7 8
M  V30 8 1 8 9
M  V30 9 1 9 10
M  V30 10 1 9 11
M  V30 11 1 11 12
M  V30 12 1 12 13 CFG=1
M  V30 13 2 13 14
M  V30 14 1 13 15
M  V30 15 1 6 16
M  V30 16 2 16 17
M  V30 17 1 17 3
M  V30 18 1 12 7
M  V30 END BOND
M  V30 BEGIN COLLECTION
M  V30 MDLV30/STERAC1 ATOMS=(2 7 12)
M  V30 END COLLECTION
M  V30 END CTAB
M  END
>  <id>  (471) 
c1d34440-e13d-4c86-ad9b-2a7b45aee637

>  <Version>  (471) 
0

>  <Alias>  (471) 
trans-pOMePhPyrrCA

>  <Type>  (471) 
amino_acid

>  <Smiles>  (471) 
COc1ccc([C@@H]2CN([*:1])C[C@H]2C(=O)[*:2])cc1 |&1:6,11|

>  <ProtectedSmiles>  (471) 
COc1ccc([C@@H]2CN(C(=O)OCC3c4ccccc4-c4ccccc43)C[C@H]2C(=O)O)cc1 |&1:6,27|

>  <CAS>  (471) 
2127012-04-6

>  <User>  (471) 
cs@orbismedicines.com

>  <StereoComment>  (471) 
rac-trans

>  <Name>  (471) 
rac-(3R,4S)-1-{[(9H-fluoren-9-yl)methoxy]carbonyl}-4-(4-methoxyphenyl)pyrrolidine-3-carboxylic acid

>  <Code>  (471) 
trans-pOMePhPyrrCA

>  <AliasLowerCase>  (471) 
trans-pomephpyrrca

>  <LatestVersion>  (471) 
0.0

>  <createdAt>  (471) 
2026-02-03T08:56:00.220Z

>  <updatedAt>  (471) 
2026-02-03T08:56:00.220Z

>  <NumRotatableBonds>  (471) 
3

>  <is_N_methyl>  (471) 
False

>  <is_a_methyl>  (471) 
False

>  <is_alpha_aa>  (471) 
False

>  <is_beta_aa>  (471) 
True

>  <is_S100_aa>  (471) 
False

>  <Murcko_SMILES>  (471) 
c1ccc([C@H]2CCNC2)cc1 |&1:4|

$$$$

     RDKit          2D

  0  0  0  0  0  0  0  0  0  0999 V3000
M  V30 BEGIN CTAB
M  V30 COUNTS 12 12 0 0 0
M  V30 BEGIN ATOM
M  V30 1 O 3.978574 1.299038 0.000000 0
M  V30 2 C 3.228574 -0.000000 0.000000 0
M  V30 3 C 1.728574 0.000000 0.000000 0
M  V30 4 C 1.077748 1.351453 0.000000 0
M  V30 5 C -0.384644 1.685235 0.000000 0
M  V30 6 C -1.557391 0.750000 0.000000 0
M  V30 7 C -1.557391 -0.750000 0.000000 0
M  V30 8 C -0.384644 -1.685235 0.000000 0
M  V30 9 C 1.077748 -1.351453 0.000000 0
M  V30 10 N 2.012983 -2.524201 0.000000 0
M  V30 11 "NOT [H]" 1.464971 -3.920511 0.000000 1
M  V30 12 "NOT [H]" 3.978574 -1.299038 0.000000 2
M  V30 END ATOM
M  V30 BEGIN BOND
M  V30 1 2 1 2
M  V30 2 1 3 2 CFG=3
M  V30 3 1 3 4
M  V30 4 1 4 5
M  V30 5 1 5 6
M  V30 6 1 6 7
M  V30 7 1 7 8
M  V30 8 1 8 9
M  V30 9 1 9 10 CFG=3
M  V30 10 1 10 11
M  V30 11 1 2 12
M  V30 12 1 9 3
M  V30 END BOND
M  V30 BEGIN COLLECTION
M  V30 MDLV30/STERAC1 ATOMS=(2 3 9)
M  V30 END COLLECTION
M  V30 END CTAB
M  END
>  <id>  (472) 
90d60ac2-5aae-437e-af92-5650179906f4

>  <Version>  (472) 
0

>  <Alias>  (472) 
rel-(1R,2S)2ACHep1CA

>  <Type>  (472) 
amino_acid

>  <Smiles>  (472) 
O=C([C@H]1CCCCC[C@H]1N[*:1])[*:2] |&1:2,8|

>  <ProtectedSmiles>  (472) 
O=C(N[C@@H]1CCCCC[C@@H]1C(=O)O)OCC1c2ccccc2-c2ccccc21 |&1:3,9|

>  <CAS>  (472) 
1212250-46-8

>  <User>  (472) 
mischa.s

>  <StereoComment>  (472) 
racemic

>  <Name>  (472) 
rel-(1R,2S)-2-({[(9H-fluoren-9-yl)methoxy]carbonyl}amino)cycloheptane-1-carboxylic acid

>  <Code>  (472) 
rel-(1R,2S)2ACHep1CA

>  <AliasLowerCase>  (472) 
rel-(1r,2s)2achep1ca

>  <LatestVersion>  (472) 
0.0

>  <createdAt>  (472) 
2026-01-14T11:32:27.494Z

>  <updatedAt>  (472) 
2026-01-14T11:32:27.494Z

>  <NumRotatableBonds>  (472) 
2

>  <is_N_methyl>  (472) 
False

>  <is_a_methyl>  (472) 
False

>  <is_alpha_aa>  (472) 
False

>  <is_beta_aa>  (472) 
True

>  <is_S100_aa>  (472) 
False

>  <Murcko_SMILES>  (472) 
C1CCCCCC1 C1CCCCCC1

$$$$

     RDKit          2D

 14 14  0  0  0  0  0  0  0  0999 V2000
    6.0000    0.0000    0.0000 O   0  0  0  0  0  0  0  0  0  0  0  0
    5.2500   -1.2990    0.0000 C   0  0  0  0  0  0  0  0  0  0  0  0
    3.7500   -1.2990    0.0000 C   0  0  0  0  0  0  0  0  0  0  0  0
    3.0000    0.0000    0.0000 C   0  0  0  0  0  0  0  0  0  0  0  0
    3.7500    1.2990    0.0000 N   0  0  0  0  0  0  0  0  0  0  0  0
    5.2500    1.2990    0.0000 R   0  0  0  0  0  1  0  0  0  1  0  0
    1.5000    0.0000    0.0000 C   0  0  0  0  0  0  0  0  0  0  0  0
    0.7500   -1.2990    0.0000 C   0  0  0  0  0  0  0  0  0  0  0  0
   -0.7500   -1.2990    0.0000 C   0  0  0  0  0  0  0  0  0  0  0  0
   -1.5000    0.0000    0.0000 C   0  0  0  0  0  0  0  0  0  0  0  0
   -3.0000    0.0000    0.0000 F   0  0  0  0  0  0  0  0  0  0  0  0
   -0.7500    1.2990    0.0000 C   0  0  0  0  0  0  0  0  0  0  0  0
    0.7500    1.2990    0.0000 C   0  0  0  0  0  0  0  0  0  0  0  0
    6.0000   -2.5981    0.0000 R   0  0  0  0  0  1  0  0  0  2  0  0
  1  2  2  0
  2  3  1  0
  3  4  1  0
  4  5  1  0
  5  6  1  0
  4  7  1  0
  7  8  2  0
  8  9  1  0
  9 10  2  0
 10 11  1  0
 10 12  1  0
 12 13  2  0
  2 14  1  0
 13  7  1  0
M  END
>  <id>  (473) 
6e921e45-02fc-4e85-91fb-9ec012a686b6

>  <Version>  (473) 
0

>  <Alias>  (473) 
rac3-(4FPh)PA

>  <Type>  (473) 
amino_acid

>  <Smiles>  (473) 
O=C(CC(N[*:1])c1ccc(F)cc1)[*:2]

>  <ProtectedSmiles>  (473) 
O=C(O)CC(NC(=O)OCC1c2ccccc2-c2ccccc21)c1ccc(F)cc1

>  <CAS>  (473) 
188814-36-0

>  <User>  (473) 
mischa.s

>  <StereoComment>  (473) 
as drawn

>  <Name>  (473) 
rac-3-((((9H-Fluoren-9-yl)methoxy)carbonyl)amino)-3-(4-fluorophenyl)propanoic acid

>  <Code>  (473) 
rac3-(4FPh)PA

>  <AliasLowerCase>  (473) 
rac3-(4fph)pa

>  <LatestVersion>  (473) 
0.0

>  <createdAt>  (473) 
2026-01-14T11:34:58.270Z

>  <updatedAt>  (473) 
2026-01-14T11:34:58.270Z

>  <NumRotatableBonds>  (473) 
4

>  <is_N_methyl>  (473) 
False

>  <is_a_methyl>  (473) 
False

>  <is_alpha_aa>  (473) 
False

>  <is_beta_aa>  (473) 
True

>  <is_S100_aa>  (473) 
False

>  <Murcko_SMILES>  (473) 
c1ccccc1

$$$$

     RDKit          2D

 13 14  0  0  0  0  0  0  0  0999 V2000
    1.5000   -6.6962    0.0000 O   0  0  0  0  0  0  0  0  0  0  0  0
    0.7500   -5.3971    0.0000 C   0  0  0  0  0  0  0  0  0  0  0  0
    1.5000   -4.0981    0.0000 C   0  0  0  0  0  0  0  0  0  0  0  0
    2.7990   -3.3481    0.0000 C   0  0  0  0  0  0  0  0  0  0  0  0
    1.5000   -2.5981    0.0000 C   0  0  0  0  0  0  0  0  0  0  0  0
    0.7500   -1.2990    0.0000 C   0  0  0  0  0  0  0  0  0  0  0  0
    1.5000    0.0000    0.0000 C   0  0  0  0  0  0  0  0  0  0  0  0
    0.7500    1.2990    0.0000 C   0  0  0  0  0  0  0  0  0  0  0  0
   -0.7500    1.2990    0.0000 N   0  0  0  0  0  0  0  0  0  0  0  0
   -1.5000    2.5981    0.0000 R   0  0  0  0  0  1  0  0  0  1  0  0
   -1.5000    0.0000    0.0000 C   0  0  0  0  0  0  0  0  0  0  0  0
   -0.7500   -1.2990    0.0000 C   0  0  0  0  0  0  0  0  0  0  0  0
   -0.7500   -5.3971    0.0000 R   0  0  0  0  0  1  0  0  0  2  0  0
  1  2  2  0
  3  2  1  1
  3  4  1  0
  4  5  1  0
  5  6  1  6
  6  7  1  0
  7  8  1  0
  8  9  1  0
  9 10  1  0
  9 11  1  0
 11 12  1  0
  2 13  1  0
  5  3  1  0
 12  6  1  0
M  END
>  <id>  (474) 
bbad0efb-c2e8-4338-98f7-b08002d65a61

>  <Version>  (474) 
0

>  <Alias>  (474) 
(1R,2S)CpPipCA

>  <Type>  (474) 
amino_acid

>  <Smiles>  (474) 
O=C([C@@H]1C[C@H]1C1CCN([*:1])CC1)[*:2]

>  <ProtectedSmiles>  (474) 
O=C(O)[C@@H]1C[C@H]1C1CCN(C(=O)OCC2c3ccccc3-c3ccccc32)CC1

>  <CAS>  (474) 
2138365-58-7

>  <User>  (474) 
Sevan.habeshian@orbismedicines.com

>  <StereoComment>  (474) 
rac-trans

>  <Name>  (474) 
N/A

>  <Code>  (474) 
(1R,2S)CpPipCA

>  <AliasLowerCase>  (474) 
(1r,2s)cppipca

>  <LatestVersion>  (474) 
0.0

>  <createdAt>  (474) 
2026-02-13T09:56:35.522Z

>  <updatedAt>  (474) 
2026-02-13T09:56:35.522Z

>  <NumRotatableBonds>  (474) 
2

>  <is_N_methyl>  (474) 
False

>  <is_a_methyl>  (474) 
False

>  <is_alpha_aa>  (474) 
False

>  <is_beta_aa>  (474) 
False

>  <is_S100_aa>  (474) 
False

>  <Murcko_SMILES>  (474) 
C1CC(C2CC2)CCN1

$$$$

     RDKit          2D

 10  9  0  0  0  0  0  0  0  0999 V2000
    5.1962   -1.5000    0.0000 O   0  0  0  0  0  0  0  0  0  0  0  0
    5.1962   -0.0000    0.0000 C   0  0  0  0  0  0  0  0  0  0  0  0
    6.4952    0.7500    0.0000 O   0  0  0  0  0  0  0  0  0  0  0  0
    3.8971    0.7500    0.0000 C   0  0  0  0  0  0  0  0  0  0  0  0
    2.5981   -0.0000    0.0000 C   0  0  0  0  0  0  0  0  0  0  0  0
    1.2990    0.7500    0.0000 N   0  0  0  0  0  0  0  0  0  0  0  0
    0.0000    0.0000    0.0000 R   0  0  0  0  0  1  0  0  0  1  0  0
    2.5981   -1.5000    0.0000 C   0  0  0  0  0  0  0  0  0  0  0  0
    1.2990   -2.2500    0.0000 O   0  0  0  0  0  0  0  0  0  0  0  0
    3.8971   -2.2500    0.0000 R   0  0  0  0  0  1  0  0  0  2  0  0
  1  2  2  0
  2  3  1  0
  2  4  1  0
  5  4  1  1
  5  6  1  0
  6  7  1  0
  5  8  1  0
  8  9  2  0
  8 10  1  0
M  END
>  <id>  (475) 
8f198fc4-dc3d-4220-a947-56d5f8b689ac

>  <Version>  (475) 
0

>  <Alias>  (475) 
Asp(ODMAB)

>  <Type>  (475) 
amino_acid

>  <Smiles>  (475) 
O=C(O)C[C@H](N[*:1])C(=O)[*:2]

>  <ProtectedSmiles>  (475) 
CC(C)CC(Nc1ccc(COC(=O)C[C@H](NC(=O)OCC2c3ccccc3-c3ccccc32)C(=O)O)cc1)=C1C(=O)CC(C)(C)CC1=O

>  <CAS>  (475) 
269066-08-2

>  <User>  (475) 
angelica.l

>  <StereoComment>  (475) 
as drawn

>  <Name>  (475) 
Fmoc-Asp(ODMAB)-OH

>  <Code>  (475) 
Asp(ODMAB)

>  <AliasLowerCase>  (475) 
asp(odmab)

>  <LatestVersion>  (475) 
0.0

>  <createdAt>  (475) 
2026-01-14T11:37:09.706Z

>  <updatedAt>  (475) 
2026-01-14T11:37:09.706Z

>  <NumRotatableBonds>  (475) 
4

>  <is_N_methyl>  (475) 
False

>  <is_a_methyl>  (475) 
False

>  <is_alpha_aa>  (475) 
True

>  <is_beta_aa>  (475) 
False

>  <is_S100_aa>  (475) 
False

>  <Murcko_SMILES>  (475) 


$$$$

     RDKit          2D

 10 10  0  0  0  0  0  0  0  0999 V2000
    3.7500    1.2990    0.0000 O   0  0  0  0  0  0  0  0  0  0  0  0
    3.0000    0.0000    0.0000 C   0  0  0  0  0  0  0  0  0  0  0  0
    1.5000    0.0000    0.0000 C   0  0  0  0  0  0  0  0  0  0  0  0
    0.7500   -1.2990    0.0000 C   0  0  0  0  0  0  0  0  0  0  0  0
   -0.7500   -1.2990    0.0000 N   0  0  0  0  0  0  0  0  0  0  0  0
   -1.5000   -2.5981    0.0000 R   0  0  0  0  0  1  0  0  0  1  0  0
   -1.5000    0.0000    0.0000 C   0  0  0  0  0  0  0  0  0  0  0  0
   -0.7500    1.2990    0.0000 C   0  0  0  0  0  0  0  0  0  0  0  0
    0.7500    1.2990    0.0000 O   0  0  0  0  0  0  0  0  0  0  0  0
    3.7500   -1.2990    0.0000 R   0  0  0  0  0  1  0  0  0  2  0  0
  1  2  2  0
  2  3  1  0
  3  4  1  0
  4  5  1  0
  5  6  1  0
  5  7  1  0
  7  8  1  0
  8  9  1  0
  2 10  1  0
  9  3  1  0
M  END
>  <id>  (476) 
8742e009-5ebe-4fd4-a792-f1e3c263d7af

>  <Version>  (476) 
0

>  <Alias>  (476) 
Morph

>  <Type>  (476) 
amino_acid

>  <Smiles>  (476) 
O=C(C1CN([*:1])CCO1)[*:2]

>  <ProtectedSmiles>  (476) 
O=C(O)C1CN(C(=O)OCC2c3ccccc3-c3ccccc32)CCO1

>  <CAS>  (476) 
312965-04-1

>  <User>  (476) 
sevan.h

>  <StereoComment>  (476) 
as drawn

>  <Name>  (476) 
4-(9H-fluoren-9-ylmethoxycarbonyl)morpholine-2-carboxylic acid

>  <Code>  (476) 
Morph

>  <AliasLowerCase>  (476) 
morph

>  <LatestVersion>  (476) 
0.0

>  <createdAt>  (476) 
2026-01-14T12:16:17.239Z

>  <updatedAt>  (476) 
2026-01-14T12:16:17.239Z

>  <NumRotatableBonds>  (476) 
1

>  <is_N_methyl>  (476) 
False

>  <is_a_methyl>  (476) 
False

>  <is_alpha_aa>  (476) 
False

>  <is_beta_aa>  (476) 
True

>  <is_S100_aa>  (476) 
False

>  <Murcko_SMILES>  (476) 
C1COCCN1

$$$$

     RDKit          2D

 17 18  0  0  0  0  0  0  0  0999 V2000
   -4.0667   -3.6527    0.0000 N   0  0  0  0  0  0  0  0  0  0  0  0
   -2.6401   -3.1891    0.0000 C   0  0  0  0  0  0  0  0  0  0  0  0
   -1.2135   -2.7256    0.0000 C   0  0  0  0  0  0  0  0  0  0  0  0
   -0.0000   -3.6073    0.0000 C   0  0  0  0  0  0  0  0  0  0  0  0
    1.2135   -2.7256    0.0000 N   0  0  0  0  0  0  0  0  0  0  0  0
    0.7500   -1.2990    0.0000 C   0  0  0  0  0  0  0  0  0  0  0  0
    1.5000    0.0000    0.0000 C   0  0  0  0  0  0  0  0  0  0  0  0
    0.7500    1.2990    0.0000 C   0  0  0  0  0  0  0  0  0  0  0  0
   -0.7500    1.2990    0.0000 C   0  0  0  0  0  0  0  0  0  0  0  0
   -1.5000    2.5981    0.0000 C   0  0  0  0  0  0  0  0  0  0  0  0
   -3.0000    2.5981    0.0000 N   0  0  0  0  0  0  0  0  0  0  0  0
   -3.7500    3.8971    0.0000 R   0  0  0  0  0  1  0  0  0  1  0  0
   -0.7500    3.8971    0.0000 C   0  0  0  0  0  0  0  0  0  0  0  0
    0.7500    3.8971    0.0000 O   0  0  0  0  0  0  0  0  0  0  0  0
   -1.5000    5.1962    0.0000 R   0  0  0  0  0  1  0  0  0  2  0  0
   -1.5000    0.0000    0.0000 C   0  0  0  0  0  0  0  0  0  0  0  0
   -0.7500   -1.2990    0.0000 C   0  0  0  0  0  0  0  0  0  0  0  0
  1  2  3  0
  2  3  1  0
  3  4  2  0
  4  5  1  0
  5  6  1  0
  6  7  2  0
  7  8  1  0
  8  9  2  0
  9 10  1  0
 10 11  1  0
 11 12  1  0
 10 13  1  0
 13 14  2  0
 13 15  1  0
  9 16  1  0
 16 17  2  0
 17  3  1  0
 17  6  1  0
M  END
>  <id>  (477) 
720cb2ce-7d57-421e-9ca2-69cbf111d761

>  <Version>  (477) 
0

>  <Alias>  (477) 
rac3Cy1IndGly

>  <Type>  (477) 
amino_acid

>  <Smiles>  (477) 
N#Cc1c[nH]c2ccc(C(N[*:1])C(=O)[*:2])cc12

>  <ProtectedSmiles>  (477) 
N#Cc1c[nH]c2ccc(C(NC(=O)OCC3c4ccccc4-c4ccccc43)C(=O)O)cc12

>  <CAS>  (477) 
not existing

>  <User>  (477) 
mischa.s

>  <StereoComment>  (477) 
as drawn

>  <Name>  (477) 
rac-3-Cyano-1-Indolgylcine

>  <Code>  (477) 
rac3Cy1IndGly

>  <AliasLowerCase>  (477) 
rac3cy1indgly

>  <LatestVersion>  (477) 
0.0

>  <createdAt>  (477) 
2026-01-14T11:34:49.267Z

>  <updatedAt>  (477) 
2026-01-14T11:34:49.267Z

>  <NumRotatableBonds>  (477) 
3

>  <is_N_methyl>  (477) 
False

>  <is_a_methyl>  (477) 
False

>  <is_alpha_aa>  (477) 
True

>  <is_beta_aa>  (477) 
False

>  <is_S100_aa>  (477) 
False

>  <Murcko_SMILES>  (477) 
c1ccc2[nH]ccc2c1

$$$$

     RDKit          2D

 12 12  0  0  0  0  0  0  0  0999 V2000
    3.7500    1.2990    0.0000 O   0  0  0  0  0  0  0  0  0  0  0  0
    3.0000    0.0000    0.0000 C   0  0  0  0  0  0  0  0  0  0  0  0
    1.5000    0.0000    0.0000 C   0  0  0  0  0  0  0  0  0  0  0  0
    0.7500   -1.2990    0.0000 C   0  0  0  0  0  0  0  0  0  0  0  0
   -0.7500   -1.2990    0.0000 C   0  0  0  0  0  0  0  0  0  0  0  0
   -1.5000    0.0000    0.0000 C   0  0  0  0  0  0  0  0  0  0  0  0
   -3.0000    0.0000    0.0000 C   0  0  0  0  0  0  0  0  0  0  0  0
   -3.7500    1.2990    0.0000 N   0  0  0  0  0  0  0  0  0  0  0  0
   -5.2500    1.2990    0.0000 R   0  0  0  0  0  1  0  0  0  1  0  0
   -0.7500    1.2990    0.0000 C   0  0  0  0  0  0  0  0  0  0  0  0
    0.7500    1.2990    0.0000 C   0  0  0  0  0  0  0  0  0  0  0  0
    3.7500   -1.2990    0.0000 R   0  0  0  0  0  1  0  0  0  2  0  0
  1  2  2  0
  3  2  1  1
  3  4  1  0
  4  5  1  0
  5  6  1  0
  6  7  1  6
  7  8  1  0
  8  9  1  0
  6 10  1  0
 10 11  1  0
  2 12  1  0
 11  3  1  0
M  END
>  <id>  (478) 
2c402e20-0615-4c11-a6a8-bee5ce5035c2

>  <Version>  (478) 
0

>  <Alias>  (478) 
trans-1-AM-4-ChCA

>  <Type>  (478) 
amino_acid

>  <Smiles>  (478) 
O=C([C@H]1CC[C@H](CN[*:1])CC1)[*:2]

>  <ProtectedSmiles>  (478) 
O=C(NC[C@H]1CC[C@H](C(=O)O)CC1)OCC1c2ccccc2-c2ccccc21

>  <CAS>  (478) 
167690-53-1

>  <User>  (478) 
mischa.s

>  <StereoComment>  (478) 
as drawn

>  <Name>  (478) 
trans-4-[[[[(9H-Fluoren-9-yl)methoxy]carbonyl]amino]methyl]cyclohexanecarboxylic acid

>  <Code>  (478) 
trans-1-AM-4-ChCA

>  <AliasLowerCase>  (478) 
trans-1-am-4-chca

>  <LatestVersion>  (478) 
0.0

>  <createdAt>  (478) 
2026-01-14T11:36:25.131Z

>  <updatedAt>  (478) 
2026-01-14T11:36:25.131Z

>  <NumRotatableBonds>  (478) 
3

>  <is_N_methyl>  (478) 
False

>  <is_a_methyl>  (478) 
False

>  <is_alpha_aa>  (478) 
False

>  <is_beta_aa>  (478) 
False

>  <is_S100_aa>  (478) 
False

>  <Murcko_SMILES>  (478) 
C1CCCCC1

$$$$

     RDKit          2D

 14 14  0  0  0  0  0  0  0  0999 V2000
    6.0000    0.0000    0.0000 O   0  0  0  0  0  0  0  0  0  0  0  0
    5.2500   -1.2990    0.0000 C   0  0  0  0  0  0  0  0  0  0  0  0
    3.7500   -1.2990    0.0000 C   0  0  0  0  0  0  0  0  0  0  0  0
    3.0000    0.0000    0.0000 C   0  0  0  0  0  0  0  0  0  0  0  0
    1.5000    0.0000    0.0000 C   0  0  0  0  0  0  0  0  0  0  0  0
    0.7500   -1.2990    0.0000 C   0  0  0  0  0  0  0  0  0  0  0  0
   -0.7500   -1.2990    0.0000 C   0  0  0  0  0  0  0  0  0  0  0  0
   -1.5000    0.0000    0.0000 C   0  0  0  0  0  0  0  0  0  0  0  0
   -0.7500    1.2990    0.0000 C   0  0  0  0  0  0  0  0  0  0  0  0
   -1.5000    2.5981    0.0000 C   0  0  0  0  0  0  0  0  0  0  0  0
   -0.7500    3.8971    0.0000 N   0  0  0  0  0  0  0  0  0  0  0  0
   -1.5000    5.1962    0.0000 R   0  0  0  0  0  1  0  0  0  1  0  0
    0.7500    1.2990    0.0000 C   0  0  0  0  0  0  0  0  0  0  0  0
    6.0000   -2.5981    0.0000 R   0  0  0  0  0  1  0  0  0  2  0  0
  1  2  2  0
  2  3  1  0
  3  4  1  0
  4  5  1  0
  5  6  2  0
  6  7  1  0
  7  8  2  0
  8  9  1  0
  9 10  1  0
 10 11  1  0
 11 12  1  0
  9 13  2  0
  2 14  1  0
 13  5  1  0
M  END
>  <id>  (479) 
9777add0-8843-4043-ad7f-88b46b7c15fa

>  <Version>  (479) 
0

>  <Alias>  (479) 
3AMePpa

>  <Type>  (479) 
amino_acid

>  <Smiles>  (479) 
O=C(CCc1cccc(CN[*:1])c1)[*:2]

>  <ProtectedSmiles>  (479) 
O=C(O)CCc1cccc(CNC(=O)OCC2c3ccccc3-c3ccccc32)c1

>  <CAS>  (479) 
317354-98-6

>  <User>  (479) 
mischa.s

>  <StereoComment>  (479) 
as drawn

>  <Name>  (479) 
3-{3-[({[(9H-fluoren-9-yl)methoxy]carbonyl}amino)methyl]phenyl}propanoic acid

>  <Code>  (479) 
3AMePpa

>  <AliasLowerCase>  (479) 
3ameppa

>  <LatestVersion>  (479) 
0.0

>  <createdAt>  (479) 
2026-01-14T11:37:49.834Z

>  <updatedAt>  (479) 
2026-01-14T11:37:49.834Z

>  <NumRotatableBonds>  (479) 
5

>  <is_N_methyl>  (479) 
False

>  <is_a_methyl>  (479) 
False

>  <is_alpha_aa>  (479) 
False

>  <is_beta_aa>  (479) 
False

>  <is_S100_aa>  (479) 
False

>  <Murcko_SMILES>  (479) 
c1ccccc1

$$$$

     RDKit          2D

 15 15  0  0  0  0  0  0  0  0999 V2000
    4.5000    0.0000    0.0000 N   0  0  0  0  0  0  0  0  0  0  0  0
    3.0000    0.0000    0.0000 C   0  0  0  0  0  0  0  0  0  0  0  0
    1.5000    0.0000    0.0000 C   0  0  0  0  0  0  0  0  0  0  0  0
    0.7500   -1.2990    0.0000 C   0  0  0  0  0  0  0  0  0  0  0  0
   -0.7500   -1.2990    0.0000 C   0  0  0  0  0  0  0  0  0  0  0  0
   -1.5000    0.0000    0.0000 C   0  0  0  0  0  0  0  0  0  0  0  0
   -0.7500    1.2990    0.0000 C   0  0  0  0  0  0  0  0  0  0  0  0
   -1.5000    2.5981    0.0000 C   0  0  0  0  0  0  0  0  0  0  0  0
   -0.7500    3.8971    0.0000 C   0  0  0  0  0  0  0  0  0  0  0  0
   -1.5000    5.1962    0.0000 C   0  0  0  0  0  0  0  0  0  0  0  0
   -3.0000    5.1962    0.0000 O   0  0  0  0  0  0  0  0  0  0  0  0
   -0.7500    6.4952    0.0000 R   0  0  0  0  0  1  0  0  0  2  0  0
   -3.0000    2.5981    0.0000 N   0  0  0  0  0  0  0  0  0  0  0  0
   -3.7500    3.8971    0.0000 R   0  0  0  0  0  1  0  0  0  1  0  0
    0.7500    1.2990    0.0000 C   0  0  0  0  0  0  0  0  0  0  0  0
  1  2  3  0
  2  3  1  0
  3  4  2  0
  4  5  1  0
  5  6  2  0
  6  7  1  0
  7  8  1  0
  8  9  1  1
  9 10  1  0
 10 11  2  0
 10 12  1  0
  8 13  1  0
 13 14  1  0
  7 15  2  0
 15  3  1  0
M  END
>  <id>  (480) 
2d9d8d8b-e575-4523-a9f6-aafb61d3d307

>  <Version>  (480) 
0

>  <Alias>  (480) 
3S-(3CNPh)PA

>  <Type>  (480) 
amino_acid

>  <Smiles>  (480) 
N#Cc1cccc([C@H](CC(=O)[*:2])N[*:1])c1

>  <ProtectedSmiles>  (480) 
N#Cc1cccc([C@H](CC(=O)O)NC(=O)OCC2c3ccccc3-c3ccccc32)c1

>  <CAS>  (480) 
507472-23-3

>  <User>  (480) 
Sevan.habeshian@orbismedicines.com

>  <StereoComment>  (480) 
as drawn

>  <Name>  (480) 
N/A

>  <Code>  (480) 
3S-(3CNPh)PA

>  <AliasLowerCase>  (480) 
3s-(3cnph)pa

>  <LatestVersion>  (480) 
0.0

>  <createdAt>  (480) 
2026-02-13T09:56:35.757Z

>  <updatedAt>  (480) 
2026-02-13T09:56:35.757Z

>  <NumRotatableBonds>  (480) 
4

>  <is_N_methyl>  (480) 
False

>  <is_a_methyl>  (480) 
False

>  <is_alpha_aa>  (480) 
False

>  <is_beta_aa>  (480) 
True

>  <is_S100_aa>  (480) 
False

>  <Murcko_SMILES>  (480) 
c1ccccc1

$$$$

     RDKit          2D

  9  8  0  0  0  0  0  0  0  0999 V2000
    7.7942   -1.5000    0.0000 O   0  0  0  0  0  0  0  0  0  0  0  0
    7.7942   -0.0000    0.0000 C   0  0  0  0  0  0  0  0  0  0  0  0
    6.4952    0.7500    0.0000 C   0  0  0  0  0  0  0  0  0  0  0  0
    5.1962   -0.0000    0.0000 C   0  0  0  0  0  0  0  0  0  0  0  0
    3.8971    0.7500    0.0000 C   0  0  0  0  0  0  0  0  0  0  0  0
    2.5981   -0.0000    0.0000 C   0  0  0  0  0  0  0  0  0  0  0  0
    1.2990    0.7500    0.0000 N   0  0  0  0  0  0  0  0  0  0  0  0
    0.0000    0.0000    0.0000 R   0  0  0  0  0  1  0  0  0  1  0  0
    9.0933    0.7500    0.0000 R   0  0  0  0  0  1  0  0  0  2  0  0
  1  2  2  0
  2  3  1  0
  3  4  1  0
  4  5  1  0
  5  6  1  0
  6  7  1  0
  7  8  1  0
  2  9  1  0
M  END
>  <id>  (481) 
5ca0f862-b377-47f4-bde3-4d0276e85651

>  <Version>  (481) 
0

>  <Alias>  (481) 
5Ava

>  <Type>  (481) 
amino_acid

>  <Smiles>  (481) 
O=C(CCCCN[*:1])[*:2]

>  <ProtectedSmiles>  (481) 
O=C(O)CCCCNC(=O)OCC1c2ccccc2-c2ccccc21

>  <CAS>  (481) 
123622-48-0

>  <User>  (481) 
sevan.h

>  <StereoComment>  (481) 
as drawn

>  <Name>  (481) 
 Fmoc-5-aminopentanoic acid

>  <Code>  (481) 
5Ava

>  <AliasLowerCase>  (481) 
5ava

>  <LatestVersion>  (481) 
0.0

>  <createdAt>  (481) 
2026-01-14T11:38:20.939Z

>  <updatedAt>  (481) 
2026-01-14T11:38:20.939Z

>  <NumRotatableBonds>  (481) 
5

>  <is_N_methyl>  (481) 
False

>  <is_a_methyl>  (481) 
False

>  <is_alpha_aa>  (481) 
False

>  <is_beta_aa>  (481) 
False

>  <is_S100_aa>  (481) 
False

>  <Murcko_SMILES>  (481) 


$$$$

     RDKit          2D

 13 13  0  0  0  0  0  0  0  0999 V2000
    6.0000    0.0000    0.0000 O   0  0  0  0  0  0  0  0  0  0  0  0
    5.2500   -1.2990    0.0000 C   0  0  0  0  0  0  0  0  0  0  0  0
    3.7500   -1.2990    0.0000 C   0  0  0  0  0  0  0  0  0  0  0  0
    3.0000    0.0000    0.0000 C   0  0  0  0  0  0  0  0  0  0  0  0
    1.5000    0.0000    0.0000 C   0  0  0  0  0  0  0  0  0  0  0  0
    0.7500   -1.2990    0.0000 C   0  0  0  0  0  0  0  0  0  0  0  0
   -0.7500   -1.2990    0.0000 C   0  0  0  0  0  0  0  0  0  0  0  0
   -1.5000    0.0000    0.0000 C   0  0  0  0  0  0  0  0  0  0  0  0
   -0.7500    1.2990    0.0000 C   0  0  0  0  0  0  0  0  0  0  0  0
    0.7500    1.2990    0.0000 C   0  0  0  0  0  0  0  0  0  0  0  0
    3.0000   -2.5981    0.0000 N   0  0  0  0  0  0  0  0  0  0  0  0
    3.7500   -3.8971    0.0000 R   0  0  0  0  0  1  0  0  0  1  0  0
    6.0000   -2.5981    0.0000 R   0  0  0  0  0  1  0  0  0  2  0  0
  1  2  2  0
  2  3  1  0
  3  4  1  1
  4  5  1  0
  5  6  1  0
  6  7  1  0
  7  8  1  0
  8  9  1  0
  9 10  1  0
  3 11  1  0
 11 12  1  0
  2 13  1  0
 10  5  1  0
M  END
>  <id>  (482) 
8cb7efe8-7a26-431a-b822-50438d8b15ed

>  <Version>  (482) 
0

>  <Alias>  (482) 
Cha

>  <Type>  (482) 
amino_acid

>  <Smiles>  (482) 
O=C([C@H](CC1CCCCC1)N[*:1])[*:2]

>  <ProtectedSmiles>  (482) 
O=C(N[C@@H](CC1CCCCC1)C(=O)O)OCC1c2ccccc2-c2ccccc21

>  <CAS>  (482) 
135673-97-1

>  <User>  (482) 
sevan.h

>  <StereoComment>  (482) 
as drawn

>  <Name>  (482) 
Fmoc-Cha-OH

>  <Code>  (482) 
Cha

>  <AliasLowerCase>  (482) 
cha

>  <LatestVersion>  (482) 
0.0

>  <createdAt>  (482) 
2026-01-14T12:16:28.539Z

>  <updatedAt>  (482) 
2026-01-14T12:16:28.539Z

>  <NumRotatableBonds>  (482) 
4

>  <is_N_methyl>  (482) 
False

>  <is_a_methyl>  (482) 
False

>  <is_alpha_aa>  (482) 
True

>  <is_beta_aa>  (482) 
False

>  <is_S100_aa>  (482) 
False

>  <Murcko_SMILES>  (482) 
C1CCCCC1

$$$$

     RDKit          2D

  9  8  0  0  0  0  0  0  0  0999 V2000
    3.8971    2.2500    0.0000 O   0  0  0  0  0  0  0  0  0  0  0  0
    2.5981    3.0000    0.0000 C   0  0  0  0  0  0  0  0  0  0  0  0
    1.2990    2.2500    0.0000 C   0  0  0  0  0  0  0  0  0  0  0  0
    1.2990    0.7500    0.0000 N   0  0  0  0  0  0  0  0  0  0  0  0
    2.5981   -0.0000    0.0000 C   0  0  0  0  0  0  0  0  0  0  0  0
    3.8971    0.7500    0.0000 C   0  0  0  0  0  0  0  0  0  0  0  0
    5.1962   -0.0000    0.0000 O   0  0  0  0  0  0  0  0  0  0  0  0
    0.0000    0.0000    0.0000 R   0  0  0  0  0  1  0  0  0  1  0  0
    2.5981    4.5000    0.0000 R   0  0  0  0  0  1  0  0  0  2  0  0
  1  2  2  0
  2  3  1  0
  3  4  1  0
  4  5  1  0
  5  6  1  0
  6  7  1  0
  4  8  1  0
  2  9  1  0
M  END
>  <id>  (483) 
889c5d27-d9de-4466-9724-542dbb6f2d11

>  <Version>  (483) 
0

>  <Alias>  (483) 
N(EtOtBu)AcOH

>  <Type>  (483) 
amino_acid

>  <Smiles>  (483) 
O=C(CN(CCO)[*:1])[*:2]

>  <ProtectedSmiles>  (483) 
CC(C)(C)OCCN(CC(=O)O)C(=O)OCC1c2ccccc2-c2ccccc21

>  <CAS>  (483) 
141743-30-8

>  <User>  (483) 
angelica.l

>  <StereoComment>  (483) 
as drawn

>  <Name>  (483) 
N-Fmoc-[2-(tert-butoxy)ethyl]glycine

>  <Code>  (483) 
N(EtOtBu)AcOH

>  <AliasLowerCase>  (483) 
n(etotbu)acoh

>  <LatestVersion>  (483) 
0.0

>  <createdAt>  (483) 
2026-01-14T11:36:08.613Z

>  <updatedAt>  (483) 
2026-01-14T11:36:08.613Z

>  <NumRotatableBonds>  (483) 
4

>  <is_N_methyl>  (483) 
False

>  <is_a_methyl>  (483) 
False

>  <is_alpha_aa>  (483) 
True

>  <is_beta_aa>  (483) 
False

>  <is_S100_aa>  (483) 
False

>  <Murcko_SMILES>  (483) 


$$$$

     RDKit          2D

 11 10  0  0  0  0  0  0  0  0999 V2000
    7.7942   -0.0000    0.0000 C   0  0  0  0  0  0  0  0  0  0  0  0
    6.4952    0.7500    0.0000 C   0  0  0  0  0  0  0  0  0  0  0  0
    6.4952    2.2500    0.0000 C   0  0  0  0  0  0  0  0  0  0  0  0
    5.1962   -0.0000    0.0000 C   0  0  0  0  0  0  0  0  0  0  0  0
    3.8971    0.7500    0.0000 C   0  0  0  0  0  0  0  0  0  0  0  0
    2.5981   -0.0000    0.0000 C   0  0  0  0  0  0  0  0  0  0  0  0
    1.2990    0.7500    0.0000 C   0  0  0  0  0  0  0  0  0  0  0  0
    1.2990    2.2500    0.0000 O   0  0  0  0  0  0  0  0  0  0  0  0
    0.0000    0.0000    0.0000 R   0  0  0  0  0  1  0  0  0  2  0  0
    3.8971    2.2500    0.0000 N   0  0  0  0  0  0  0  0  0  0  0  0
    5.1962    3.0000    0.0000 R   0  0  0  0  0  1  0  0  0  1  0  0
  1  2  1  0
  2  3  1  0
  2  4  1  0
  5  4  1  6
  5  6  1  0
  6  7  1  0
  7  8  2  0
  7  9  1  0
  5 10  1  0
 10 11  1  0
M  END
>  <id>  (484) 
c38d1d25-da81-491a-96c5-af8da215f5e8

>  <Version>  (484) 
0

>  <Alias>  (484) 
D-B-hLeu

>  <Type>  (484) 
amino_acid

>  <Smiles>  (484) 
CC(C)C[C@H](CC(=O)[*:2])N[*:1]

>  <ProtectedSmiles>  (484) 
CC(C)C[C@H](CC(=O)O)NC(=O)OCC1c2ccccc2-c2ccccc21

>  <CAS>  (484) 
212688-54-5

>  <User>  (484) 
sevan.h

>  <StereoComment>  (484) 
as drawn

>  <Name>  (484) 
Fmoc-D-beta-homoleucine

>  <Code>  (484) 
D-B-hLeu

>  <AliasLowerCase>  (484) 
d-b-hleu

>  <LatestVersion>  (484) 
0.0

>  <createdAt>  (484) 
2026-01-14T12:15:41.313Z

>  <updatedAt>  (484) 
2026-01-14T12:15:41.313Z

>  <NumRotatableBonds>  (484) 
5

>  <is_N_methyl>  (484) 
False

>  <is_a_methyl>  (484) 
False

>  <is_alpha_aa>  (484) 
False

>  <is_beta_aa>  (484) 
True

>  <is_S100_aa>  (484) 
False

>  <Murcko_SMILES>  (484) 


$$$$

     RDKit          2D

 14 15  0  0  0  0  0  0  0  0999 V2000
   -4.3764    3.7611    0.0000 O   0  0  0  0  0  0  0  0  0  0  0  0
   -2.9499    4.2246    0.0000 C   0  0  0  0  0  0  0  0  0  0  0  0
   -1.8351    3.2209    0.0000 C   0  0  0  0  0  0  0  0  0  0  0  0
   -2.1470    1.7537    0.0000 C   0  0  0  0  0  0  0  0  0  0  0  0
   -1.0323    0.7500    0.0000 N   0  0  0  0  0  0  0  0  0  0  0  0
    0.3943    1.2135    0.0000 C   0  0  0  0  0  0  0  0  0  0  0  0
    1.2760    0.0000    0.0000 N   0  0  0  0  0  0  0  0  0  0  0  0
    0.3943   -1.2135    0.0000 N   0  0  0  0  0  0  0  0  0  0  0  0
   -1.0323   -0.7500    0.0000 C   0  0  0  0  0  0  0  0  0  0  0  0
   -2.2458   -1.6317    0.0000 O   0  0  0  0  0  0  0  0  0  0  0  0
    0.7062    2.6807    0.0000 C   0  0  0  0  0  0  0  0  0  0  0  0
   -0.4086    3.6844    0.0000 N   0  0  0  0  0  0  0  0  0  0  0  0
   -0.0967    5.1517    0.0000 R   0  0  0  0  0  1  0  0  0  1  0  0
   -2.6380    5.6918    0.0000 R   0  0  0  0  0  1  0  0  0  2  0  0
  1  2  2  0
  2  3  1  0
  3  4  1  0
  4  5  1  0
  5  6  1  0
  6  7  2  0
  7  8  1  0
  8  9  1  0
  9 10  2  0
  6 11  1  0
 11 12  1  0
 12 13  1  0
  2 14  1  0
 12  3  1  0
  9  5  1  0
M  END
>  <id>  (485) 
326912cf-288b-4c2b-997c-42f91fa00243

>  <Version>  (485) 
0

>  <Alias>  (485) 
TrzPipzCA

>  <Type>  (485) 
amino_acid

>  <Smiles>  (485) 
O=C(C1Cn2c(n[nH]c2=O)CN1[*:1])[*:2]

>  <ProtectedSmiles>  (485) 
O=C(O)C1Cn2c(n[nH]c2=O)CN1C(=O)OCC1c2ccccc2-c2ccccc21

>  <CAS>  (485) 
2137493-56-0

>  <User>  (485) 
Sevan.habeshian@orbismedicines.com

>  <StereoComment>  (485) 
as drawn

>  <Name>  (485) 
N/A

>  <Code>  (485) 
TrzPipzCA

>  <AliasLowerCase>  (485) 
trzpipzca

>  <LatestVersion>  (485) 
0.0

>  <createdAt>  (485) 
2026-02-13T09:56:35.496Z

>  <updatedAt>  (485) 
2026-02-13T09:56:35.496Z

>  <NumRotatableBonds>  (485) 
1

>  <is_N_methyl>  (485) 
False

>  <is_a_methyl>  (485) 
False

>  <is_alpha_aa>  (485) 
True

>  <is_beta_aa>  (485) 
False

>  <is_S100_aa>  (485) 
False

>  <Murcko_SMILES>  (485) 
O=c1[nH]nc2n1CCNC2

$$$$

     RDKit          2D

 13 13  0  0  0  0  0  0  0  0999 V2000
    5.2500   -3.8971    0.0000 O   0  0  0  0  0  0  0  0  0  0  0  0
    3.7500   -3.8971    0.0000 C   0  0  0  0  0  0  0  0  0  0  0  0
    3.0000   -2.5981    0.0000 C   0  0  0  0  0  0  0  0  0  0  0  0
    3.7500   -1.2990    0.0000 N   0  0  0  0  0  0  0  0  0  0  0  0
    3.0000    0.0000    0.0000 C   0  0  0  0  0  0  0  0  0  0  0  0
    1.5000    0.0000    0.0000 C   0  0  0  0  0  0  0  0  0  0  0  0
    0.7500   -1.2990    0.0000 C   0  0  0  0  0  0  0  0  0  0  0  0
   -0.7500   -1.2990    0.0000 C   0  0  0  0  0  0  0  0  0  0  0  0
   -1.5000    0.0000    0.0000 C   0  0  0  0  0  0  0  0  0  0  0  0
   -0.7500    1.2990    0.0000 C   0  0  0  0  0  0  0  0  0  0  0  0
    0.7500    1.2990    0.0000 C   0  0  0  0  0  0  0  0  0  0  0  0
    5.2500   -1.2990    0.0000 R   0  0  0  0  0  1  0  0  0  1  0  0
    3.0000   -5.1962    0.0000 R   0  0  0  0  0  1  0  0  0  2  0  0
  1  2  2  0
  2  3  1  0
  3  4  1  0
  4  5  1  0
  5  6  1  0
  6  7  2  0
  7  8  1  0
  8  9  2  0
  9 10  1  0
 10 11  2  0
  4 12  1  0
  2 13  1  0
 11  6  1  0
M  END
>  <id>  (486) 
bda0c051-7da6-4574-9594-c67ac476c695

>  <Version>  (486) 
0

>  <Alias>  (486) 
BnGly

>  <Type>  (486) 
amino_acid

>  <Smiles>  (486) 
O=C(CN(Cc1ccccc1)[*:1])[*:2]

>  <ProtectedSmiles>  (486) 
O=C(O)CN(Cc1ccccc1)C(=O)OCC1c2ccccc2-c2ccccc21

>  <CAS>  (486) 
141743-13-7

>  <User>  (486) 
sevan.h

>  <StereoComment>  (486) 
as drawn

>  <Name>  (486) 
Fmoc N-Benzylglycine

>  <Code>  (486) 
BnGly

>  <AliasLowerCase>  (486) 
bngly

>  <LatestVersion>  (486) 
0.0

>  <createdAt>  (486) 
2026-01-14T11:38:17.414Z

>  <updatedAt>  (486) 
2026-01-14T11:38:17.414Z

>  <NumRotatableBonds>  (486) 
4

>  <is_N_methyl>  (486) 
False

>  <is_a_methyl>  (486) 
False

>  <is_alpha_aa>  (486) 
True

>  <is_beta_aa>  (486) 
False

>  <is_S100_aa>  (486) 
False

>  <Murcko_SMILES>  (486) 
c1ccccc1

$$$$

     RDKit          2D

 11 10  0  0  0  0  0  0  0  0999 V2000
    7.7942   -0.0000    0.0000 N   0  0  0  0  0  0  0  0  0  0  0  0
    6.4952    0.7500    0.0000 C   0  0  0  0  0  0  0  0  0  0  0  0
    6.4952    2.2500    0.0000 O   0  0  0  0  0  0  0  0  0  0  0  0
    5.1962   -0.0000    0.0000 C   0  0  0  0  0  0  0  0  0  0  0  0
    3.8971    0.7500    0.0000 C   0  0  0  0  0  0  0  0  0  0  0  0
    2.5981   -0.0000    0.0000 C   0  0  0  0  0  0  0  0  0  0  0  0
    1.2990    0.7500    0.0000 N   0  0  0  0  0  0  0  0  0  0  0  0
    0.0000    0.0000    0.0000 R   0  0  0  0  0  1  0  0  0  1  0  0
    2.5981   -1.5000    0.0000 C   0  0  0  0  0  0  0  0  0  0  0  0
    1.2990   -2.2500    0.0000 O   0  0  0  0  0  0  0  0  0  0  0  0
    3.8971   -2.2500    0.0000 R   0  0  0  0  0  1  0  0  0  2  0  0
  1  2  1  0
  2  3  2  0
  2  4  1  0
  4  5  1  0
  6  5  1  1
  6  7  1  0
  7  8  1  0
  6  9  1  0
  9 10  2  0
  9 11  1  0
M  END
>  <id>  (487) 
9f7d7eef-e579-4bc1-83ab-69694cc169d8

>  <Version>  (487) 
0

>  <Alias>  (487) 
Gln_UP

>  <Type>  (487) 
amino_acid

>  <Smiles>  (487) 
NC(=O)CC[C@H](N[*:1])C(=O)[*:2]

>  <ProtectedSmiles>  (487) 
NC(=O)CC[C@H](NC(=O)OCC1c2ccccc2-c2ccccc21)C(=O)O

>  <CAS>  (487) 
71989-20-3

>  <User>  (487) 
Sevan.habeshian@orbismedicines.com

>  <StereoComment>  (487) 
as drawn

>  <Name>  (487) 
N/A

>  <Code>  (487) 
Gln_UP

>  <AliasLowerCase>  (487) 
gln_up

>  <LatestVersion>  (487) 
0.0

>  <createdAt>  (487) 
2026-02-13T09:56:35.490Z

>  <updatedAt>  (487) 
2026-02-13T09:56:35.490Z

>  <NumRotatableBonds>  (487) 
5

>  <is_N_methyl>  (487) 
False

>  <is_a_methyl>  (487) 
False

>  <is_alpha_aa>  (487) 
True

>  <is_beta_aa>  (487) 
False

>  <is_S100_aa>  (487) 
False

>  <Murcko_SMILES>  (487) 


$$$$

     RDKit          2D

 14 14  0  0  0  0  0  0  0  0999 V2000
    6.0000    0.0000    0.0000 O   0  0  0  0  0  0  0  0  0  0  0  0
    5.2500   -1.2990    0.0000 C   0  0  0  0  0  0  0  0  0  0  0  0
    3.7500   -1.2990    0.0000 C   0  0  0  0  0  0  0  0  0  0  0  0
    3.0000    0.0000    0.0000 C   0  0  0  0  0  0  0  0  0  0  0  0
    1.5000    0.0000    0.0000 C   0  0  0  0  0  0  0  0  0  0  0  0
    0.7500   -1.2990    0.0000 C   0  0  0  0  0  0  0  0  0  0  0  0
   -0.7500   -1.2990    0.0000 C   0  0  0  0  0  0  0  0  0  0  0  0
   -1.5000    0.0000    0.0000 C   0  0  0  0  0  0  0  0  0  0  0  0
   -0.7500    1.2990    0.0000 C   0  0  0  0  0  0  0  0  0  0  0  0
   -1.5000    2.5981    0.0000 O   0  0  0  0  0  0  0  0  0  0  0  0
    0.7500    1.2990    0.0000 C   0  0  0  0  0  0  0  0  0  0  0  0
    3.0000   -2.5981    0.0000 N   0  0  0  0  0  0  0  0  0  0  0  0
    3.7500   -3.8971    0.0000 R   0  0  0  0  0  1  0  0  0  1  0  0
    6.0000   -2.5981    0.0000 R   0  0  0  0  0  1  0  0  0  2  0  0
  1  2  2  0
  2  3  1  0
  3  4  1  6
  4  5  1  0
  5  6  2  0
  6  7  1  0
  7  8  2  0
  8  9  1  0
  9 10  1  0
  9 11  2  0
  3 12  1  0
 12 13  1  0
  2 14  1  0
 11  5  1  0
M  END
>  <id>  (488) 
3a1f9b7e-7fb7-4a5e-8a43-8993fddbf18d

>  <Version>  (488) 
0

>  <Alias>  (488) 
D-3HOPhe

>  <Type>  (488) 
amino_acid

>  <Smiles>  (488) 
O=C([C@@H](Cc1cccc(O)c1)N[*:1])[*:2]

>  <ProtectedSmiles>  (488) 
O=C(N[C@H](Cc1cccc(O)c1)C(=O)O)OCC1c2ccccc2-c2ccccc21

>  <CAS>  (488) 
1217724-28-1

>  <User>  (488) 
mischa.s

>  <StereoComment>  (488) 
as drawn

>  <Name>  (488) 
N-Fmoc-3-hydroxy-D-phenylalanine

>  <Code>  (488) 
D-3HOPhe

>  <AliasLowerCase>  (488) 
d-3hophe

>  <LatestVersion>  (488) 
0.0

>  <createdAt>  (488) 
2026-01-14T11:36:20.407Z

>  <updatedAt>  (488) 
2026-01-14T11:36:20.407Z

>  <NumRotatableBonds>  (488) 
4

>  <is_N_methyl>  (488) 
False

>  <is_a_methyl>  (488) 
False

>  <is_alpha_aa>  (488) 
True

>  <is_beta_aa>  (488) 
False

>  <is_S100_aa>  (488) 
False

>  <Murcko_SMILES>  (488) 
c1ccccc1

$$$$

     RDKit          2D

 13 13  0  0  0  0  0  0  0  0999 V2000
    6.0000    0.0000    0.0000 O   0  0  0  0  0  0  0  0  0  0  0  0
    5.2500   -1.2990    0.0000 C   0  0  0  0  0  0  0  0  0  0  0  0
    3.7500   -1.2990    0.0000 C   0  0  0  0  0  0  0  0  0  0  0  0
    3.0000    0.0000    0.0000 C   0  0  0  0  0  0  0  0  0  0  0  0
    3.7500    1.2990    0.0000 N   0  0  0  0  0  0  0  0  0  0  0  0
    5.2500    1.2990    0.0000 R   0  0  0  0  0  1  0  0  0  1  0  0
    1.5000    0.0000    0.0000 C   0  0  0  0  0  0  0  0  0  0  0  0
    0.7500   -1.2990    0.0000 C   0  0  0  0  0  0  0  0  0  0  0  0
   -0.7500   -1.2990    0.0000 C   0  0  0  0  0  0  0  0  0  0  0  0
   -1.5000    0.0000    0.0000 C   0  0  0  0  0  0  0  0  0  0  0  0
   -0.7500    1.2990    0.0000 N   0  0  0  0  0  0  0  0  0  0  0  0
    0.7500    1.2990    0.0000 C   0  0  0  0  0  0  0  0  0  0  0  0
    6.0000   -2.5981    0.0000 R   0  0  0  0  0  1  0  0  0  2  0  0
  1  2  2  0
  2  3  1  0
  4  3  1  1
  4  5  1  0
  5  6  1  0
  4  7  1  0
  7  8  2  0
  8  9  1  0
  9 10  2  0
 10 11  1  0
 11 12  2  0
  2 13  1  0
 12  7  1  0
M  END
>  <id>  (489) 
974194dd-8e2c-4071-a899-dbb270ca8d2d

>  <Version>  (489) 
0

>  <Alias>  (489) 
3S-(3Pyr)PA

>  <Type>  (489) 
amino_acid

>  <Smiles>  (489) 
O=C(C[C@H](N[*:1])c1cccnc1)[*:2]

>  <ProtectedSmiles>  (489) 
O=C(O)C[C@H](NC(=O)OCC1c2ccccc2-c2ccccc21)c1cccnc1

>  <CAS>  (489) 
507472-06-2

>  <User>  (489) 
Sevan.habeshian@orbismedicines.com

>  <StereoComment>  (489) 
as drawn

>  <Name>  (489) 
N/A

>  <Code>  (489) 
3S-(3Pyr)PA

>  <AliasLowerCase>  (489) 
3s-(3pyr)pa

>  <LatestVersion>  (489) 
0.0

>  <createdAt>  (489) 
2026-02-13T09:56:36.368Z

>  <updatedAt>  (489) 
2026-02-13T09:56:36.368Z

>  <NumRotatableBonds>  (489) 
4

>  <is_N_methyl>  (489) 
False

>  <is_a_methyl>  (489) 
False

>  <is_alpha_aa>  (489) 
False

>  <is_beta_aa>  (489) 
True

>  <is_S100_aa>  (489) 
False

>  <Murcko_SMILES>  (489) 
c1ccncc1

$$$$

     RDKit          2D

 13 14  0  0  0  0  0  0  0  0999 V2000
    3.5260    1.2990    0.0000 O   0  0  0  0  0  0  0  0  0  0  0  0
    2.7760    0.0000    0.0000 C   0  0  0  0  0  0  0  0  0  0  0  0
    1.2760    0.0000    0.0000 C   0  0  0  0  0  0  0  0  0  0  0  0
    0.3943    1.2135    0.0000 C   0  0  0  0  0  0  0  0  0  0  0  0
   -1.0323    0.7500    0.0000 O   0  0  0  0  0  0  0  0  0  0  0  0
   -1.0323   -0.7500    0.0000 C   0  0  0  0  0  0  0  0  0  0  0  0
   -2.2458   -1.6317    0.0000 C   0  0  0  0  0  0  0  0  0  0  0  0
   -3.7273   -1.3970    0.0000 C   0  0  0  0  0  0  0  0  0  0  0  0
   -3.9620   -2.8786    0.0000 N   0  0  0  0  0  0  0  0  0  0  0  0
   -5.1755   -3.7602    0.0000 R   0  0  0  0  0  1  0  0  0  1  0  0
   -2.4805   -3.1132    0.0000 C   0  0  0  0  0  0  0  0  0  0  0  0
    0.3943   -1.2135    0.0000 N   0  0  0  0  0  0  0  0  0  0  0  0
    3.5260   -1.2990    0.0000 R   0  0  0  0  0  1  0  0  0  2  0  0
  1  2  2  0
  2  3  1  0
  3  4  2  0
  4  5  1  0
  5  6  1  0
  6  7  1  0
  7  8  1  0
  8  9  1  0
  9 10  1  0
  9 11  1  0
  6 12  2  0
  2 13  1  0
 12  3  1  0
 11  7  1  0
M  END
>  <id>  (490) 
bac27f10-359d-410c-b74d-b407d1b754b2

>  <Version>  (490) 
0

>  <Alias>  (490) 
3Azet_4Oxa

>  <Type>  (490) 
amino_acid

>  <Smiles>  (490) 
O=C(c1coc(C2CN([*:1])C2)n1)[*:2]

>  <ProtectedSmiles>  (490) 
O=C(O)c1coc(C2CN(C(=O)OCC3c4ccccc4-c4ccccc43)C2)n1

>  <CAS>  (490) 
2172042-24-7

>  <User>  (490) 
sevan.h

>  <StereoComment>  (490) 
as drawn

>  <Name>  (490) 
2-(1-{[(9H-fluoren-9-yl)methoxy]carbonyl}azetidin-3-yl)-1,3-oxazole-4-carboxylic acid

>  <Code>  (490) 
3Azet_4Oxa

>  <AliasLowerCase>  (490) 
3azet_4oxa

>  <LatestVersion>  (490) 
0.0

>  <createdAt>  (490) 
2026-01-14T11:32:52.622Z

>  <updatedAt>  (490) 
2026-01-14T11:32:52.622Z

>  <NumRotatableBonds>  (490) 
2

>  <is_N_methyl>  (490) 
False

>  <is_a_methyl>  (490) 
False

>  <is_alpha_aa>  (490) 
False

>  <is_beta_aa>  (490) 
False

>  <is_S100_aa>  (490) 
False

>  <Murcko_SMILES>  (490) 
c1coc(C2CNC2)n1

$$$$

     RDKit          2D

 12 12  0  0  0  0  0  0  0  0999 V2000
    3.7500    1.2990    0.0000 O   0  0  0  0  0  0  0  0  0  0  0  0
    3.0000    0.0000    0.0000 C   0  0  0  0  0  0  0  0  0  0  0  0
    1.5000    0.0000    0.0000 C   0  0  0  0  0  0  0  0  0  0  0  0
    0.7500   -1.2990    0.0000 C   0  0  0  0  0  0  0  0  0  0  0  0
   -0.7500   -1.2990    0.0000 N   0  0  0  0  0  0  0  0  0  0  0  0
   -1.5000   -2.5981    0.0000 R   0  0  0  0  0  1  0  0  0  1  0  0
   -1.5000    0.0000    0.0000 C   0  0  0  0  0  0  0  0  0  0  0  0
   -0.7500    1.2990    0.0000 C   0  0  0  0  0  0  0  0  0  0  0  0
    0.7500    1.2990    0.0000 S   0  0  0  0  0  0  0  0  0  0  0  0
    0.4895    2.7762    0.0000 O   0  0  0  0  0  0  0  0  0  0  0  0
    2.1595    1.8121    0.0000 O   0  0  0  0  0  0  0  0  0  0  0  0
    3.7500   -1.2990    0.0000 R   0  0  0  0  0  1  0  0  0  2  0  0
  1  2  2  0
  2  3  1  0
  3  4  1  0
  4  5  1  0
  5  6  1  0
  5  7  1  0
  7  8  1  0
  8  9  1  0
  9 10  2  0
  9 11  2  0
  2 12  1  0
  9  3  1  0
M  END
>  <id>  (491) 
1e6378f8-d48a-42d5-bac8-6ba4e435292c

>  <Version>  (491) 
0

>  <Alias>  (491) 
TMOCA

>  <Type>  (491) 
amino_acid

>  <Smiles>  (491) 
O=C(C1CN([*:1])CCS1(=O)=O)[*:2]

>  <ProtectedSmiles>  (491) 
O=C(O)C1CN(C(=O)OCC2c3ccccc3-c3ccccc32)CCS1(=O)=O

>  <CAS>  (491) 
2138514-95-9

>  <User>  (491) 
Sevan.habeshian@orbismedicines.com

>  <StereoComment>  (491) 
as drawn

>  <Name>  (491) 
N/A

>  <Code>  (491) 
TMOCA

>  <AliasLowerCase>  (491) 
tmoca

>  <LatestVersion>  (491) 
0.0

>  <createdAt>  (491) 
2026-02-13T09:56:36.300Z

>  <updatedAt>  (491) 
2026-02-13T09:56:36.300Z

>  <NumRotatableBonds>  (491) 
1

>  <is_N_methyl>  (491) 
False

>  <is_a_methyl>  (491) 
False

>  <is_alpha_aa>  (491) 
False

>  <is_beta_aa>  (491) 
True

>  <is_S100_aa>  (491) 
False

>  <Murcko_SMILES>  (491) 
O=S1(=O)CCNCC1

$$$$

     RDKit          2D

  8  8  0  0  0  0  0  0  0  0999 V2000
    1.3172    2.5586    0.0000 O   0  0  0  0  0  0  0  0  0  0  0  0
    1.8302    1.1491    0.0000 C   0  0  0  0  0  0  0  0  0  0  0  0
    0.8660    0.0000    0.0000 C   0  0  0  0  0  0  0  0  0  0  0  0
    1.8302   -1.1491    0.0000 N   0  0  0  0  0  0  0  0  0  0  0  0
    1.3172   -2.5586    0.0000 R   0  0  0  0  0  1  0  0  0  1  0  0
   -0.4330    0.7500    0.0000 C   0  0  0  0  0  0  0  0  0  0  0  0
   -0.4330   -0.7500    0.0000 C   0  0  0  0  0  0  0  0  0  0  0  0
    3.3074    0.8886    0.0000 R   0  0  0  0  0  1  0  0  0  2  0  0
  1  2  2  0
  2  3  1  0
  3  4  1  0
  4  5  1  0
  3  6  1  0
  6  7  1  0
  2  8  1  0
  7  3  1  0
M  END
>  <id>  (492) 
a37df5e4-1deb-4a73-aede-16c863cf9eeb

>  <Version>  (492) 
0

>  <Alias>  (492) 
Acpc

>  <Type>  (492) 
amino_acid

>  <Smiles>  (492) 
O=C(C1(N[*:1])CC1)[*:2]

>  <ProtectedSmiles>  (492) 
O=C(NC1(C(=O)O)CC1)OCC1c2ccccc2-c2ccccc21

>  <CAS>  (492) 
126705-22-4

>  <User>  (492) 
sevan.h

>  <StereoComment>  (492) 
as drawn

>  <Name>  (492) 
Fmoc-Acpc-OH

>  <Code>  (492) 
Acpc

>  <AliasLowerCase>  (492) 
acpc

>  <LatestVersion>  (492) 
0.0

>  <createdAt>  (492) 
2026-01-14T12:15:57.601Z

>  <updatedAt>  (492) 
2026-01-14T12:15:57.601Z

>  <NumRotatableBonds>  (492) 
2

>  <is_N_methyl>  (492) 
False

>  <is_a_methyl>  (492) 
False

>  <is_alpha_aa>  (492) 
True

>  <is_beta_aa>  (492) 
False

>  <is_S100_aa>  (492) 
False

>  <Murcko_SMILES>  (492) 
C1CC1

$$$$

     RDKit          2D

 19 20  0  0  0  0  0  0  0  0999 V2000
    3.0000   -5.1962    0.0000 O   0  0  0  0  0  0  0  0  0  0  0  0
    3.7500   -3.8971    0.0000 C   0  0  0  0  0  0  0  0  0  0  0  0
    3.0000   -2.5981    0.0000 C   0  0  0  0  0  0  0  0  0  0  0  0
    3.7500   -1.2990    0.0000 N   0  0  0  0  0  0  0  0  0  0  0  0
    5.2500   -1.2990    0.0000 R   0  0  0  0  0  1  0  0  0  1  0  0
    1.5000   -2.5981    0.0000 C   0  0  0  0  0  0  0  0  0  0  0  0
    0.7500   -1.2990    0.0000 C   0  0  0  0  0  0  0  0  0  0  0  0
    1.5000    0.0000    0.0000 C   0  0  0  0  0  0  0  0  0  0  0  0
    0.7500    1.2990    0.0000 C   0  0  0  0  0  0  0  0  0  0  0  0
   -0.7500    1.2990    0.0000 C   0  0  0  0  0  0  0  0  0  0  0  0
   -1.5000    0.0000    0.0000 C   0  0  0  0  0  0  0  0  0  0  0  0
   -0.7500   -1.2990    0.0000 C   0  0  0  0  0  0  0  0  0  0  0  0
    0.7500   -3.8971    0.0000 C   0  0  0  0  0  0  0  0  0  0  0  0
   -0.7500   -3.8971    0.0000 C   0  0  0  0  0  0  0  0  0  0  0  0
   -1.5000   -5.1962    0.0000 C   0  0  0  0  0  0  0  0  0  0  0  0
   -0.7500   -6.4952    0.0000 C   0  0  0  0  0  0  0  0  0  0  0  0
    0.7500   -6.4952    0.0000 C   0  0  0  0  0  0  0  0  0  0  0  0
    1.5000   -5.1962    0.0000 C   0  0  0  0  0  0  0  0  0  0  0  0
    5.2500   -3.8971    0.0000 R   0  0  0  0  0  1  0  0  0  2  0  0
  1  2  2  0
  2  3  1  0
  3  4  1  6
  4  5  1  0
  3  6  1  0
  6  7  1  0
  7  8  2  0
  8  9  1  0
  9 10  2  0
 10 11  1  0
 11 12  2  0
  6 13  1  0
 13 14  2  0
 14 15  1  0
 15 16  2  0
 16 17  1  0
 17 18  2  0
  2 19  1  0
 12  7  1  0
 18 13  1  0
M  END
>  <id>  (493) 
5f63c383-fefd-435d-aa1b-cd7bbaf4c99e

>  <Version>  (493) 
0

>  <Alias>  (493) 
Ala(Ph2)

>  <Type>  (493) 
amino_acid

>  <Smiles>  (493) 
O=C([C@@H](N[*:1])C(c1ccccc1)c1ccccc1)[*:2]

>  <ProtectedSmiles>  (493) 
O=C(N[C@H](C(=O)O)C(c1ccccc1)c1ccccc1)OCC1c2ccccc2-c2ccccc21

>  <CAS>  (493) 
201484-50-6

>  <User>  (493) 
sevan.h

>  <StereoComment>  (493) 
as drawn

>  <Name>  (493) 
Fmoc-L-3,3-diphenylalanine

>  <Code>  (493) 
Ala(Ph2)

>  <AliasLowerCase>  (493) 
ala(ph2)

>  <LatestVersion>  (493) 
0.0

>  <createdAt>  (493) 
2026-01-14T12:15:26.333Z

>  <updatedAt>  (493) 
2026-01-14T12:15:26.333Z

>  <NumRotatableBonds>  (493) 
5

>  <is_N_methyl>  (493) 
False

>  <is_a_methyl>  (493) 
False

>  <is_alpha_aa>  (493) 
True

>  <is_beta_aa>  (493) 
False

>  <is_S100_aa>  (493) 
False

>  <Murcko_SMILES>  (493) 
c1ccc(Cc2ccccc2)cc1

$$$$

     RDKit          2D

 15 15  0  0  0  0  0  0  0  0999 V2000
    6.0000   -2.5981    0.0000 C   0  0  0  0  0  0  0  0  0  0  0  0
    5.2500   -1.2990    0.0000 C   0  0  0  0  0  0  0  0  0  0  0  0
    3.7500   -1.2990    0.0000 C   0  0  0  0  0  0  0  0  0  0  0  0
    3.0000    0.0000    0.0000 C   0  0  0  0  0  0  0  0  0  0  0  0
    1.5000    0.0000    0.0000 C   0  0  0  0  0  0  0  0  0  0  0  0
    0.7500   -1.2990    0.0000 C   0  0  0  0  0  0  0  0  0  0  0  0
   -0.7500   -1.2990    0.0000 C   0  0  0  0  0  0  0  0  0  0  0  0
   -1.5000    0.0000    0.0000 C   0  0  0  0  0  0  0  0  0  0  0  0
   -3.0000    0.0000    0.0000 N   0  0  0  0  0  0  0  0  0  0  0  0
   -3.7500    1.2990    0.0000 R   0  0  0  0  0  1  0  0  0  1  0  0
   -0.7500    1.2990    0.0000 C   0  0  0  0  0  0  0  0  0  0  0  0
    0.7500    1.2990    0.0000 C   0  0  0  0  0  0  0  0  0  0  0  0
    3.0000   -2.5981    0.0000 C   0  0  0  0  0  0  0  0  0  0  0  0
    1.5000   -2.5981    0.0000 O   0  0  0  0  0  0  0  0  0  0  0  0
    3.7500   -3.8971    0.0000 R   0  0  0  0  0  1  0  0  0  2  0  0
  1  2  1  0
  2  3  1  0
  3  4  1  0
  4  5  1  0
  5  6  2  0
  6  7  1  0
  7  8  2  0
  8  9  1  0
  9 10  1  0
  8 11  1  0
 11 12  2  0
  3 13  1  0
 13 14  2  0
 13 15  1  0
 12  5  1  0
M  END
>  <id>  (494) 
f9bb5908-ca61-4978-a169-814904a5b202

>  <Version>  (494) 
0

>  <Alias>  (494) 
PhBnBuAla

>  <Type>  (494) 
amino_acid

>  <Smiles>  (494) 
CCC(Cc1ccc(N[*:1])cc1)C(=O)[*:2]

>  <ProtectedSmiles>  (494) 
CCC(Cc1ccc(NC(=O)OCC2c3ccccc3-c3ccccc32)cc1)C(=O)O

>  <CAS>  (494) 
2229450-30-8

>  <User>  (494) 
Sevan.habeshian@orbismedicines.com

>  <StereoComment>  (494) 
as drawn

>  <Name>  (494) 
N/A

>  <Code>  (494) 
PhBnBuAla

>  <AliasLowerCase>  (494) 
phbnbuala

>  <LatestVersion>  (494) 
0.0

>  <createdAt>  (494) 
2026-02-13T09:56:36.313Z

>  <updatedAt>  (494) 
2026-02-13T09:56:36.313Z

>  <NumRotatableBonds>  (494) 
5

>  <is_N_methyl>  (494) 
False

>  <is_a_methyl>  (494) 
False

>  <is_alpha_aa>  (494) 
False

>  <is_beta_aa>  (494) 
False

>  <is_S100_aa>  (494) 
False

>  <Murcko_SMILES>  (494) 
c1ccccc1

$$$$

     RDKit          2D

 11 10  0  0  0  0  0  0  0  0999 V2000
    5.9462    1.2990    0.0000 C   0  0  0  0  0  0  0  0  0  0  0  0
    5.1962   -0.0000    0.0000 C   0  0  0  0  0  0  0  0  0  0  0  0
    4.4462   -1.2990    0.0000 C   0  0  0  0  0  0  0  0  0  0  0  0
    6.4952   -0.7500    0.0000 C   0  0  0  0  0  0  0  0  0  0  0  0
    3.8971    0.7500    0.0000 C   0  0  0  0  0  0  0  0  0  0  0  0
    2.5981   -0.0000    0.0000 C   0  0  0  0  0  0  0  0  0  0  0  0
    1.2990    0.7500    0.0000 N   0  0  0  0  0  0  0  0  0  0  0  0
    0.0000    0.0000    0.0000 R   0  0  0  0  0  1  0  0  0  1  0  0
    2.5981   -1.5000    0.0000 C   0  0  0  0  0  0  0  0  0  0  0  0
    1.2990   -2.2500    0.0000 O   0  0  0  0  0  0  0  0  0  0  0  0
    3.8971   -2.2500    0.0000 R   0  0  0  0  0  1  0  0  0  2  0  0
  1  2  1  0
  2  3  1  0
  2  4  1  0
  2  5  1  0
  6  5  1  1
  6  7  1  0
  7  8  1  0
  6  9  1  0
  9 10  2  0
  9 11  1  0
M  END
>  <id>  (495) 
3e711502-8bbe-4f32-9b6f-208f45b6f7a3

>  <Version>  (495) 
0

>  <Alias>  (495) 
tBuAla

>  <Type>  (495) 
amino_acid

>  <Smiles>  (495) 
CC(C)(C)C[C@H](N[*:1])C(=O)[*:2]

>  <ProtectedSmiles>  (495) 
CC(C)(C)C[C@H](NC(=O)OCC1c2ccccc2-c2ccccc21)C(=O)O

>  <CAS>  (495) 
139551-74-9

>  <User>  (495) 
sevan.h

>  <StereoComment>  (495) 
as drawn

>  <Name>  (495) 
Fmoc-beta-t-butyl-l-alanine

>  <Code>  (495) 
tBuAla

>  <AliasLowerCase>  (495) 
tbuala

>  <LatestVersion>  (495) 
0.0

>  <createdAt>  (495) 
2026-01-14T12:15:45.343Z

>  <updatedAt>  (495) 
2026-01-14T12:15:45.343Z

>  <NumRotatableBonds>  (495) 
3

>  <is_N_methyl>  (495) 
False

>  <is_a_methyl>  (495) 
False

>  <is_alpha_aa>  (495) 
True

>  <is_beta_aa>  (495) 
False

>  <is_S100_aa>  (495) 
False

>  <Murcko_SMILES>  (495) 


$$$$

     RDKit          2D

 15 15  0  0  0  0  0  0  0  0999 V2000
    4.5000    0.0000    0.0000 N   0  0  0  0  0  0  0  0  0  0  0  0
    3.0000    0.0000    0.0000 C   0  0  0  0  0  0  0  0  0  0  0  0
    1.5000    0.0000    0.0000 C   0  0  0  0  0  0  0  0  0  0  0  0
    0.7500   -1.2990    0.0000 C   0  0  0  0  0  0  0  0  0  0  0  0
   -0.7500   -1.2990    0.0000 C   0  0  0  0  0  0  0  0  0  0  0  0
   -1.5000    0.0000    0.0000 C   0  0  0  0  0  0  0  0  0  0  0  0
   -0.7500    1.2990    0.0000 C   0  0  0  0  0  0  0  0  0  0  0  0
    0.7500    1.2990    0.0000 C   0  0  0  0  0  0  0  0  0  0  0  0
    1.5000    2.5981    0.0000 C   0  0  0  0  0  0  0  0  0  0  0  0
    3.0000    2.5981    0.0000 C   0  0  0  0  0  0  0  0  0  0  0  0
    3.7500    1.2990    0.0000 N   0  0  0  0  0  0  0  0  0  0  0  0
    5.2500    1.2990    0.0000 R   0  0  0  0  0  1  0  0  0  1  0  0
    3.7500    3.8971    0.0000 C   0  0  0  0  0  0  0  0  0  0  0  0
    3.0000    5.1962    0.0000 O   0  0  0  0  0  0  0  0  0  0  0  0
    5.2500    3.8971    0.0000 R   0  0  0  0  0  1  0  0  0  2  0  0
  1  2  3  0
  2  3  1  0
  3  4  2  0
  4  5  1  0
  5  6  2  0
  6  7  1  0
  7  8  2  0
  8  9  1  0
  9 10  1  0
 10 11  1  0
 11 12  1  0
 10 13  1  0
 13 14  2  0
 13 15  1  0
  8  3  1  0
M  END
>  <id>  (496) 
a84b9732-3b5d-4888-8750-fd8160269036

>  <Version>  (496) 
0

>  <Alias>  (496) 
rac2CNPhe

>  <Type>  (496) 
amino_acid

>  <Smiles>  (496) 
N#Cc1ccccc1CC(N[*:1])C(=O)[*:2]

>  <ProtectedSmiles>  (496) 
N#Cc1ccccc1CC(NC(=O)OCC1c2ccccc2-c2ccccc21)C(=O)O

>  <CAS>  (496) 
401620-75-5

>  <User>  (496) 
clement.gensous@orbismedicines.com

>  <StereoComment>  (496) 
as drawn

>  <Name>  (496) 
2-Cyano-N-[(9H-fluoren-9-ylmethoxy)carbonyl]phenylalanine

>  <Code>  (496) 
rac2CNPhe

>  <AliasLowerCase>  (496) 
rac2cnphe

>  <LatestVersion>  (496) 
0.0

>  <createdAt>  (496) 
2026-02-26T08:54:34.602Z

>  <updatedAt>  (496) 
2026-02-26T08:54:34.602Z

>  <NumRotatableBonds>  (496) 
4

>  <is_N_methyl>  (496) 
False

>  <is_a_methyl>  (496) 
False

>  <is_alpha_aa>  (496) 
True

>  <is_beta_aa>  (496) 
False

>  <is_S100_aa>  (496) 
False

>  <Murcko_SMILES>  (496) 
c1ccccc1

$$$$

     RDKit          2D

 11 11  0  0  0  0  0  0  0  0999 V2000
    3.5260    1.2990    0.0000 O   0  0  0  0  0  0  0  0  0  0  0  0
    2.7760    0.0000    0.0000 C   0  0  0  0  0  0  0  0  0  0  0  0
    1.2760    0.0000    0.0000 C   0  0  0  0  0  0  0  0  0  0  0  0
    0.3943    1.2135    0.0000 C   0  0  0  0  0  0  0  0  0  0  0  0
   -1.0323    0.7500    0.0000 C   0  0  0  0  0  0  0  0  0  0  0  0
   -1.0323   -0.7500    0.0000 O   0  0  0  0  0  0  0  0  0  0  0  0
    0.3943   -1.2135    0.0000 C   0  0  0  0  0  0  0  0  0  0  0  0
    0.8578   -2.6401    0.0000 C   0  0  0  0  0  0  0  0  0  0  0  0
   -0.1459   -3.7548    0.0000 N   0  0  0  0  0  0  0  0  0  0  0  0
    0.3177   -5.1814    0.0000 R   0  0  0  0  0  1  0  0  0  1  0  0
    3.5260   -1.2990    0.0000 R   0  0  0  0  0  1  0  0  0  2  0  0
  1  2  2  0
  3  2  1  1
  3  4  1  0
  4  5  1  0
  5  6  1  0
  6  7  1  0
  7  8  1  1
  8  9  1  0
  9 10  1  0
  2 11  1  0
  7  3  1  0
M  END
>  <id>  (497) 
a060beca-15a8-42d1-8ee2-5cc6820620d2

>  <Version>  (497) 
0

>  <Alias>  (497) 
(2S,3R)OxaMethyCA

>  <Type>  (497) 
amino_acid

>  <Smiles>  (497) 
O=C([C@@H]1CCO[C@@H]1CN[*:1])[*:2]

>  <ProtectedSmiles>  (497) 
O=C(NC[C@H]1OCC[C@H]1C(=O)O)OCC1c2ccccc2-c2ccccc21

>  <CAS>  (497) 
2137550-53-7

>  <User>  (497) 
Sevan.habeshian@orbismedicines.com

>  <StereoComment>  (497) 
rac-cis

>  <Name>  (497) 
N/A

>  <Code>  (497) 
(2S,3R)OxaMethyCA

>  <AliasLowerCase>  (497) 
(2s,3r)oxamethyca

>  <LatestVersion>  (497) 
0.0

>  <createdAt>  (497) 
2026-02-13T09:56:35.522Z

>  <updatedAt>  (497) 
2026-02-13T09:56:35.522Z

>  <NumRotatableBonds>  (497) 
3

>  <is_N_methyl>  (497) 
False

>  <is_a_methyl>  (497) 
False

>  <is_alpha_aa>  (497) 
False

>  <is_beta_aa>  (497) 
False

>  <is_S100_aa>  (497) 
False

>  <Murcko_SMILES>  (497) 
C1CCOC1

$$$$

     RDKit          2D

 10  9  0  0  0  0  0  0  0  0999 V2000
    7.7942   -0.0000    0.0000 C   0  0  0  0  0  0  0  0  0  0  0  0
    6.4952    0.7500    0.0000 C   0  0  0  0  0  0  0  0  0  0  0  0
    5.1962   -0.0000    0.0000 C   0  0  0  0  0  0  0  0  0  0  0  0
    3.8971    0.7500    0.0000 C   0  0  0  0  0  0  0  0  0  0  0  0
    2.5981   -0.0000    0.0000 C   0  0  0  0  0  0  0  0  0  0  0  0
    1.2990    0.7500    0.0000 N   0  0  0  0  0  0  0  0  0  0  0  0
    0.0000    0.0000    0.0000 R   0  0  0  0  0  1  0  0  0  1  0  0
    2.5981   -1.5000    0.0000 C   0  0  0  0  0  0  0  0  0  0  0  0
    1.2990   -2.2500    0.0000 O   0  0  0  0  0  0  0  0  0  0  0  0
    3.8971   -2.2500    0.0000 R   0  0  0  0  0  1  0  0  0  2  0  0
  1  2  1  0
  2  3  1  0
  3  4  1  0
  4  5  1  0
  5  6  1  0
  6  7  1  0
  5  8  1  0
  8  9  2  0
  8 10  1  0
M  END
>  <id>  (498) 
bbd8ffb0-d222-4bc4-a2a3-c240adc064e3

>  <Version>  (498) 
0

>  <Alias>  (498) 
rac-Nle

>  <Type>  (498) 
amino_acid

>  <Smiles>  (498) 
CCCCC(N[*:1])C(=O)[*:2]

>  <ProtectedSmiles>  (498) 
CCCCC(NC(=O)OCC1c2ccccc2-c2ccccc21)C(=O)O

>  <CAS>  (498) 
144701-20-2

>  <User>  (498) 
clement.gensous@orbismedicines.com

>  <StereoComment>  (498) 
as drawn

>  <Name>  (498) 
rac-Nle

>  <Code>  (498) 
rac-Nle

>  <AliasLowerCase>  (498) 
rac-nle

>  <LatestVersion>  (498) 
0.0

>  <createdAt>  (498) 
2026-01-15T09:28:48.751Z

>  <updatedAt>  (498) 
2026-01-15T09:28:48.751Z

>  <NumRotatableBonds>  (498) 
5

>  <is_N_methyl>  (498) 
False

>  <is_a_methyl>  (498) 
False

>  <is_alpha_aa>  (498) 
True

>  <is_beta_aa>  (498) 
False

>  <is_S100_aa>  (498) 
False

>  <Murcko_SMILES>  (498) 


$$$$

     RDKit          2D

 16 16  0  0  0  0  0  0  0  0999 V2000
    5.7760    2.5981    0.0000 C   0  0  0  0  0  0  0  0  0  0  0  0
    5.0260    1.2990    0.0000 C   0  0  0  0  0  0  0  0  0  0  0  0
    5.7760   -0.0000    0.0000 C   0  0  0  0  0  0  0  0  0  0  0  0
    3.5260    1.2990    0.0000 C   0  0  0  0  0  0  0  0  0  0  0  0
    2.7760    0.0000    0.0000 C   0  0  0  0  0  0  0  0  0  0  0  0
    3.5260   -1.2990    0.0000 C   0  0  0  0  0  0  0  0  0  0  0  0
    2.7760   -2.5981    0.0000 O   0  0  0  0  0  0  0  0  0  0  0  0
    5.0260   -1.2990    0.0000 R   0  0  0  0  0  1  0  0  0  2  0  0
    1.2760    0.0000    0.0000 N   0  0  0  0  0  0  0  0  0  0  0  0
    0.3943    1.2135    0.0000 C   0  0  0  0  0  0  0  0  0  0  0  0
   -1.0323    0.7500    0.0000 C   0  0  0  0  0  0  0  0  0  0  0  0
   -1.0323   -0.7500    0.0000 C   0  0  0  0  0  0  0  0  0  0  0  0
   -2.2458   -1.6317    0.0000 N   0  0  0  0  0  0  0  0  0  0  0  0
   -3.6161   -1.0216    0.0000 R   0  0  0  0  0  1  0  0  0  1  0  0
    0.3943   -1.2135    0.0000 C   0  0  0  0  0  0  0  0  0  0  0  0
    0.8578   -2.6401    0.0000 O   0  0  0  0  0  0  0  0  0  0  0  0
  1  2  1  0
  2  3  1  0
  2  4  1  0
  5  4  1  1
  5  6  1  0
  6  7  2  0
  6  8  1  0
  5  9  1  0
  9 10  1  0
 10 11  1  0
 11 12  1  0
 12 13  1  6
 13 14  1  0
 12 15  1  0
 15 16  2  0
 15  9  1  0
M  END
>  <id>  (499) 
6c1e6b56-8c98-4e21-b515-f621f2e68cea

>  <Version>  (499) 
0

>  <Alias>  (499) 
FreidLac

>  <Type>  (499) 
amino_acid

>  <Smiles>  (499) 
CC(C)C[C@@H](C(=O)[*:2])N1CC[C@@H](N[*:1])C1=O

>  <ProtectedSmiles>  (499) 
CC(C)C[C@@H](C(=O)O)N1CC[C@@H](NC(=O)OCC2c3ccccc3-c3ccccc32)C1=O

>  <CAS>  (499) 
145484-45-3

>  <User>  (499) 
angelica.l

>  <StereoComment>  (499) 
as drawn

>  <Name>  (499) 
Fmoc-freidinger's lactam

>  <Code>  (499) 
FreidLac

>  <AliasLowerCase>  (499) 
freidlac

>  <LatestVersion>  (499) 
0.0

>  <createdAt>  (499) 
2026-01-14T11:35:43.194Z

>  <updatedAt>  (499) 
2026-01-14T11:35:43.194Z

>  <NumRotatableBonds>  (499) 
5

>  <is_N_methyl>  (499) 
False

>  <is_a_methyl>  (499) 
False

>  <is_alpha_aa>  (499) 
False

>  <is_beta_aa>  (499) 
False

>  <is_S100_aa>  (499) 
False

>  <Murcko_SMILES>  (499) 
O=C1CCCN1

$$$$

     RDKit          2D

 15 15  0  0  0  0  0  0  0  0999 V2000
    8.2500   -1.2990    0.0000 O   0  0  0  0  0  0  0  0  0  0  0  0
    7.5000   -2.5981    0.0000 C   0  0  0  0  0  0  0  0  0  0  0  0
    6.0000   -2.5981    0.0000 C   0  0  0  0  0  0  0  0  0  0  0  0
    5.2500   -1.2990    0.0000 C   0  0  0  0  0  0  0  0  0  0  0  0
    3.7500   -1.2990    0.0000 O   0  0  0  0  0  0  0  0  0  0  0  0
    3.0000    0.0000    0.0000 C   0  0  0  0  0  0  0  0  0  0  0  0
    1.5000    0.0000    0.0000 C   0  0  0  0  0  0  0  0  0  0  0  0
    0.7500   -1.2990    0.0000 C   0  0  0  0  0  0  0  0  0  0  0  0
   -0.7500   -1.2990    0.0000 C   0  0  0  0  0  0  0  0  0  0  0  0
   -1.5000    0.0000    0.0000 C   0  0  0  0  0  0  0  0  0  0  0  0
   -0.7500    1.2990    0.0000 C   0  0  0  0  0  0  0  0  0  0  0  0
    0.7500    1.2990    0.0000 C   0  0  0  0  0  0  0  0  0  0  0  0
    5.2500   -3.8971    0.0000 N   0  0  0  0  0  0  0  0  0  0  0  0
    6.0000   -5.1962    0.0000 R   0  0  0  0  0  1  0  0  0  1  0  0
    8.2500   -3.8971    0.0000 R   0  0  0  0  0  1  0  0  0  2  0  0
  1  2  2  0
  2  3  1  0
  3  4  1  6
  4  5  1  0
  5  6  1  0
  6  7  1  0
  7  8  2  0
  8  9  1  0
  9 10  2  0
 10 11  1  0
 11 12  2  0
  3 13  1  0
 13 14  1  0
  2 15  1  0
 12  7  1  0
M  END
>  <id>  (500) 
5ad391ac-7345-49ac-b28e-c8d160b24394

>  <Version>  (500) 
0

>  <Alias>  (500) 
D-Ser(OBn)

>  <Type>  (500) 
amino_acid

>  <Smiles>  (500) 
O=C([C@@H](COCc1ccccc1)N[*:1])[*:2]

>  <ProtectedSmiles>  (500) 
O=C(N[C@H](COCc1ccccc1)C(=O)O)OCC1c2ccccc2-c2ccccc21

>  <CAS>  (500) 
122889-11-6

>  <User>  (500) 
clement.gensous@orbismedicines.com

>  <StereoComment>  (500) 
as drawn

>  <Name>  (500) 
D-Ser(OBn)

>  <Code>  (500) 
D-Ser(OBn)

>  <AliasLowerCase>  (500) 
d-ser(obn)

>  <LatestVersion>  (500) 
0.0

>  <createdAt>  (500) 
2026-01-15T09:28:40.675Z

>  <updatedAt>  (500) 
2026-01-15T09:28:40.675Z

>  <NumRotatableBonds>  (500) 
6

>  <is_N_methyl>  (500) 
False

>  <is_a_methyl>  (500) 
False

>  <is_alpha_aa>  (500) 
True

>  <is_beta_aa>  (500) 
False

>  <is_S100_aa>  (500) 
False

>  <Murcko_SMILES>  (500) 
c1ccccc1

$$$$

     RDKit          2D

 13 13  0  0  0  0  0  0  0  0999 V2000
    6.0000    0.0000    0.0000 O   0  0  0  0  0  0  0  0  0  0  0  0
    5.2500   -1.2990    0.0000 C   0  0  0  0  0  0  0  0  0  0  0  0
    3.7500   -1.2990    0.0000 C   0  0  0  0  0  0  0  0  0  0  0  0
    3.0000    0.0000    0.0000 C   0  0  0  0  0  0  0  0  0  0  0  0
    3.7500    1.2990    0.0000 N   0  0  0  0  0  0  0  0  0  0  0  0
    5.2500    1.2990    0.0000 R   0  0  0  0  0  1  0  0  0  1  0  0
    1.5000    0.0000    0.0000 C   0  0  0  0  0  0  0  0  0  0  0  0
    0.7500   -1.2990    0.0000 C   0  0  0  0  0  0  0  0  0  0  0  0
   -0.7500   -1.2990    0.0000 C   0  0  0  0  0  0  0  0  0  0  0  0
   -1.5000    0.0000    0.0000 C   0  0  0  0  0  0  0  0  0  0  0  0
   -0.7500    1.2990    0.0000 C   0  0  0  0  0  0  0  0  0  0  0  0
    0.7500    1.2990    0.0000 C   0  0  0  0  0  0  0  0  0  0  0  0
    6.0000   -2.5981    0.0000 R   0  0  0  0  0  1  0  0  0  2  0  0
  1  2  2  0
  2  3  1  0
  3  4  1  0
  4  5  1  0
  5  6  1  0
  4  7  1  0
  7  8  2  0
  8  9  1  0
  9 10  2  0
 10 11  1  0
 11 12  2  0
  2 13  1  0
 12  7  1  0
M  END
>  <id>  (501) 
c8485bb2-97e8-42cd-a0a4-db839db9a587

>  <Version>  (501) 
0

>  <Alias>  (501) 
3Appa

>  <Type>  (501) 
amino_acid

>  <Smiles>  (501) 
O=C(CC(N[*:1])c1ccccc1)[*:2]

>  <ProtectedSmiles>  (501) 
O=C(O)CC(NC(=O)OCC1c2ccccc2-c2ccccc21)c1ccccc1

>  <CAS>  (501) 
180181-93-5

>  <User>  (501) 
mischa.s

>  <StereoComment>  (501) 
as drawn

>  <Name>  (501) 
3-({[(9H-fluoren-9-yl)methoxy]carbonyl}amino)-3-phenylpropanoic acid (rac)

>  <Code>  (501) 
3Appa

>  <AliasLowerCase>  (501) 
3appa

>  <LatestVersion>  (501) 
0.0

>  <createdAt>  (501) 
2026-01-14T11:37:50.274Z

>  <updatedAt>  (501) 
2026-01-14T11:37:50.274Z

>  <NumRotatableBonds>  (501) 
4

>  <is_N_methyl>  (501) 
False

>  <is_a_methyl>  (501) 
False

>  <is_alpha_aa>  (501) 
False

>  <is_beta_aa>  (501) 
True

>  <is_S100_aa>  (501) 
False

>  <Murcko_SMILES>  (501) 
c1ccccc1

$$$$

     RDKit          2D

 12 12  0  0  0  0  0  0  0  0999 V2000
    3.7500    1.2990    0.0000 O   0  0  0  0  0  0  0  0  0  0  0  0
    3.0000    0.0000    0.0000 C   0  0  0  0  0  0  0  0  0  0  0  0
    1.5000    0.0000    0.0000 C   0  0  0  0  0  0  0  0  0  0  0  0
    0.7500   -1.2990    0.0000 C   0  0  0  0  0  0  0  0  0  0  0  0
   -0.7500   -1.2990    0.0000 C   0  0  0  0  0  0  0  0  0  0  0  0
   -1.5000   -2.5981    0.0000 C   0  0  0  0  0  0  0  0  0  0  0  0
   -3.0000   -2.5981    0.0000 N   0  0  0  0  0  0  0  0  0  0  0  0
   -3.7500   -3.8971    0.0000 R   0  0  0  0  0  1  0  0  0  1  0  0
   -1.5000    0.0000    0.0000 C   0  0  0  0  0  0  0  0  0  0  0  0
   -0.7500    1.2990    0.0000 C   0  0  0  0  0  0  0  0  0  0  0  0
    0.7500    1.2990    0.0000 N   0  0  0  0  0  0  0  0  0  0  0  0
    3.7500   -1.2990    0.0000 R   0  0  0  0  0  1  0  0  0  2  0  0
  1  2  2  0
  2  3  1  0
  3  4  2  0
  4  5  1  0
  5  6  1  0
  6  7  1  0
  7  8  1  0
  5  9  2  0
  9 10  1  0
 10 11  2  0
  2 12  1  0
 11  3  1  0
M  END
>  <id>  (502) 
d9f0092c-64d5-4751-b320-867be3d3d87c

>  <Version>  (502) 
0

>  <Alias>  (502) 
4AMPA

>  <Type>  (502) 
amino_acid

>  <Smiles>  (502) 
O=C(c1cc(CN[*:1])ccn1)[*:2]

>  <ProtectedSmiles>  (502) 
O=C(NCc1ccnc(C(=O)O)c1)OCC1c2ccccc2-c2ccccc21

>  <CAS>  (502) 
2137567-16-7

>  <User>  (502) 
cs@orbismedicines.com

>  <StereoComment>  (502) 
as drawn

>  <Name>  (502) 
4-[({[(9H-fluoren-9-yl)methoxy]carbonyl}amino)methyl]pyridine-2-carboxylic acid

>  <Code>  (502) 
4AMPA

>  <AliasLowerCase>  (502) 
4ampa

>  <LatestVersion>  (502) 
0.0

>  <createdAt>  (502) 
2026-02-04T08:48:26.654Z

>  <updatedAt>  (502) 
2026-02-04T08:48:26.654Z

>  <NumRotatableBonds>  (502) 
3

>  <is_N_methyl>  (502) 
False

>  <is_a_methyl>  (502) 
False

>  <is_alpha_aa>  (502) 
False

>  <is_beta_aa>  (502) 
False

>  <is_S100_aa>  (502) 
False

>  <Murcko_SMILES>  (502) 
c1ccncc1

$$$$

     RDKit          2D

 13 13  0  0  0  0  0  0  0  0999 V2000
    6.0000    0.0000    0.0000 O   0  0  0  0  0  0  0  0  0  0  0  0
    5.2500   -1.2990    0.0000 C   0  0  0  0  0  0  0  0  0  0  0  0
    3.7500   -1.2990    0.0000 C   0  0  0  0  0  0  0  0  0  0  0  0
    3.0000    0.0000    0.0000 C   0  0  0  0  0  0  0  0  0  0  0  0
    1.5000    0.0000    0.0000 C   0  0  0  0  0  0  0  0  0  0  0  0
    0.7500   -1.2990    0.0000 C   0  0  0  0  0  0  0  0  0  0  0  0
   -0.7500   -1.2990    0.0000 C   0  0  0  0  0  0  0  0  0  0  0  0
   -1.5000    0.0000    0.0000 C   0  0  0  0  0  0  0  0  0  0  0  0
   -3.0000    0.0000    0.0000 N   0  0  0  0  0  0  0  0  0  0  0  0
   -3.7500    1.2990    0.0000 R   0  0  0  0  0  1  0  0  0  1  0  0
   -0.7500    1.2990    0.0000 C   0  0  0  0  0  0  0  0  0  0  0  0
    0.7500    1.2990    0.0000 C   0  0  0  0  0  0  0  0  0  0  0  0
    6.0000   -2.5981    0.0000 R   0  0  0  0  0  1  0  0  0  2  0  0
  1  2  2  0
  2  3  1  0
  3  4  1  0
  4  5  1  0
  5  6  2  0
  6  7  1  0
  7  8  2  0
  8  9  1  0
  9 10  1  0
  8 11  1  0
 11 12  2  0
  2 13  1  0
 12  5  1  0
M  END
>  <id>  (503) 
5a834922-2cff-4335-bed2-9c6452cbb098

>  <Version>  (503) 
0

>  <Alias>  (503) 
4APP

>  <Type>  (503) 
amino_acid

>  <Smiles>  (503) 
O=C(CCc1ccc(N[*:1])cc1)[*:2]

>  <ProtectedSmiles>  (503) 
O=C(O)CCc1ccc(NC(=O)OCC2c3ccccc3-c3ccccc32)cc1

>  <CAS>  (503) 
882847-07-6

>  <User>  (503) 
sevan.h

>  <StereoComment>  (503) 
as drawn

>  <Name>  (503) 
3-(Fmoc-4-aminophenyl)-propionic acid

>  <Code>  (503) 
4APP

>  <AliasLowerCase>  (503) 
4app

>  <LatestVersion>  (503) 
0.0

>  <createdAt>  (503) 
2026-01-14T12:15:59.076Z

>  <updatedAt>  (503) 
2026-01-14T12:15:59.076Z

>  <NumRotatableBonds>  (503) 
4

>  <is_N_methyl>  (503) 
False

>  <is_a_methyl>  (503) 
False

>  <is_alpha_aa>  (503) 
False

>  <is_beta_aa>  (503) 
False

>  <is_S100_aa>  (503) 
False

>  <Murcko_SMILES>  (503) 
c1ccccc1

$$$$

     RDKit          2D

  8  7  0  0  0  0  0  0  0  0999 V2000
    5.1962   -0.0000    0.0000 C   0  0  0  0  0  0  0  0  0  0  0  0
    3.8971    0.7500    0.0000 C   0  0  0  0  0  0  0  0  0  0  0  0
    2.5981   -0.0000    0.0000 C   0  0  0  0  0  0  0  0  0  0  0  0
    1.2990    0.7500    0.0000 N   0  0  0  0  0  0  0  0  0  0  0  0
    0.0000    0.0000    0.0000 R   0  0  0  0  0  1  0  0  0  1  0  0
    2.5981   -1.5000    0.0000 C   0  0  0  0  0  0  0  0  0  0  0  0
    1.2990   -2.2500    0.0000 O   0  0  0  0  0  0  0  0  0  0  0  0
    3.8971   -2.2500    0.0000 R   0  0  0  0  0  1  0  0  0  2  0  0
  1  2  1  0
  3  2  1  1
  3  4  1  0
  4  5  1  0
  3  6  1  0
  6  7  2  0
  6  8  1  0
M  END
>  <id>  (504) 
18461780-5781-4a3d-8bd4-1e83f0b306a7

>  <Version>  (504) 
0

>  <Alias>  (504) 
Abu

>  <Type>  (504) 
amino_acid

>  <Smiles>  (504) 
CC[C@H](N[*:1])C(=O)[*:2]

>  <ProtectedSmiles>  (504) 
CC[C@H](NC(=O)OCC1c2ccccc2-c2ccccc21)C(=O)O

>  <CAS>  (504) 
135112-27-5

>  <User>  (504) 
sevan.h

>  <StereoComment>  (504) 
as drawn

>  <Name>  (504) 
 Fmoc-Abu-OH

>  <Code>  (504) 
Abu

>  <AliasLowerCase>  (504) 
abu

>  <LatestVersion>  (504) 
0.0

>  <createdAt>  (504) 
2026-01-14T12:15:31.544Z

>  <updatedAt>  (504) 
2026-01-14T12:15:31.544Z

>  <NumRotatableBonds>  (504) 
3

>  <is_N_methyl>  (504) 
False

>  <is_a_methyl>  (504) 
False

>  <is_alpha_aa>  (504) 
True

>  <is_beta_aa>  (504) 
False

>  <is_S100_aa>  (504) 
False

>  <Murcko_SMILES>  (504) 


$$$$

     RDKit          2D

  9  9  0  0  0  0  0  0  0  0999 V2000
    2.3660   -2.5981    0.0000 O   0  0  0  0  0  0  0  0  0  0  0  0
    3.1160   -1.2990    0.0000 C   0  0  0  0  0  0  0  0  0  0  0  0
    2.3660    0.0000    0.0000 C   0  0  0  0  0  0  0  0  0  0  0  0
    3.1160    1.2990    0.0000 N   0  0  0  0  0  0  0  0  0  0  0  0
    4.6160    1.2990    0.0000 R   0  0  0  0  0  1  0  0  0  1  0  0
    0.8660    0.0000    0.0000 C   0  0  0  0  0  0  0  0  0  0  0  0
   -0.4330    0.7500    0.0000 C   0  0  0  0  0  0  0  0  0  0  0  0
   -0.4330   -0.7500    0.0000 C   0  0  0  0  0  0  0  0  0  0  0  0
    4.6160   -1.2990    0.0000 R   0  0  0  0  0  1  0  0  0  2  0  0
  1  2  2  0
  2  3  1  0
  3  4  1  0
  4  5  1  0
  3  6  1  0
  6  7  1  0
  7  8  1  0
  2  9  1  0
  8  6  1  0
M  END
>  <id>  (505) 
50011949-415c-4940-9df1-24edb29d466c

>  <Version>  (505) 
0

>  <Alias>  (505) 
rac-cPropGly

>  <Type>  (505) 
amino_acid

>  <Smiles>  (505) 
O=C(C(N[*:1])C1CC1)[*:2]

>  <ProtectedSmiles>  (505) 
O=C(NC(C(=O)O)C1CC1)OCC1c2ccccc2-c2ccccc21

>  <CAS>  (505) 
1332765-55-5

>  <User>  (505) 
Sevan.habeshian@orbismedicines.com

>  <StereoComment>  (505) 
as drawn

>  <Name>  (505) 
N/A

>  <Code>  (505) 
rac-cPropGly

>  <AliasLowerCase>  (505) 
rac-cpropgly

>  <LatestVersion>  (505) 
0.0

>  <createdAt>  (505) 
2026-02-13T09:56:35.395Z

>  <updatedAt>  (505) 
2026-02-13T09:56:35.395Z

>  <NumRotatableBonds>  (505) 
3

>  <is_N_methyl>  (505) 
False

>  <is_a_methyl>  (505) 
False

>  <is_alpha_aa>  (505) 
True

>  <is_beta_aa>  (505) 
False

>  <is_S100_aa>  (505) 
False

>  <Murcko_SMILES>  (505) 
C1CC1

$$$$

     RDKit          2D

 10 11  0  0  0  0  0  0  0  0999 V2000
   -0.7046    3.3338    0.0000 O   0  0  0  0  0  0  0  0  0  0  0  0
    0.1771    2.1203    0.0000 C   0  0  0  0  0  0  0  0  0  0  0  0
   -0.4330    0.7500    0.0000 C   0  0  0  0  0  0  0  0  0  0  0  0
    0.8660    0.0000    0.0000 C   0  0  0  0  0  0  0  0  0  0  0  0
   -0.4330   -0.7500    0.0000 C   0  0  0  0  0  0  0  0  0  0  0  0
   -1.8596   -1.2135    0.0000 C   0  0  0  0  0  0  0  0  0  0  0  0
   -2.7413    0.0000    0.0000 N   0  0  0  0  0  0  0  0  0  0  0  0
   -4.2413    0.0000    0.0000 R   0  0  0  0  0  1  0  0  0  1  0  0
   -1.8596    1.2135    0.0000 C   0  0  0  0  0  0  0  0  0  0  0  0
    1.6689    2.2771    0.0000 R   0  0  0  0  0  1  0  0  0  2  0  0
  1  2  2  0
  3  2  1  6
  3  4  1  0
  5  4  1  1
  5  6  1  0
  6  7  1  0
  7  8  1  0
  7  9  1  0
  2 10  1  0
  5  3  1  0
  9  3  1  0
M  END
>  <id>  (506) 
520f2be0-8a2b-46d0-9dbe-06b6aeae6128

>  <Version>  (506) 
0

>  <Alias>  (506) 
(1R,5R)AzaBiHexCA

>  <Type>  (506) 
amino_acid

>  <Smiles>  (506) 
O=C([C@]12C[C@H]1CN([*:1])C2)[*:2]

>  <ProtectedSmiles>  (506) 
O=C(OCC1c2ccccc2-c2ccccc21)N1C[C@@H]2C[C@]2(C(=O)O)C1

>  <CAS>  (506) 
2381048-87-7

>  <User>  (506) 
Sevan.habeshian@orbismedicines.com

>  <StereoComment>  (506) 
as drawn

>  <Name>  (506) 
N/A

>  <Code>  (506) 
(1R,5R)AzaBiHexCA

>  <AliasLowerCase>  (506) 
(1r,5r)azabihexca

>  <LatestVersion>  (506) 
0.0

>  <createdAt>  (506) 
2026-02-13T09:56:36.308Z

>  <updatedAt>  (506) 
2026-02-13T09:56:36.308Z

>  <NumRotatableBonds>  (506) 
1

>  <is_N_methyl>  (506) 
False

>  <is_a_methyl>  (506) 
False

>  <is_alpha_aa>  (506) 
False

>  <is_beta_aa>  (506) 
True

>  <is_S100_aa>  (506) 
False

>  <Murcko_SMILES>  (506) 
C1NC[C@@H]2CC12

$$$$

     RDKit          2D

 12 11  0  0  0  0  0  0  0  0999 V2000
    7.7942    1.5000    0.0000 C   0  0  0  0  0  0  0  0  0  0  0  0
    6.4952    0.7500    0.0000 S   0  0  0  0  0  0  0  0  0  0  0  0
    5.7452    2.0490    0.0000 O   0  0  0  0  0  0  0  0  0  0  0  0
    7.2452   -0.5490    0.0000 O   0  0  0  0  0  0  0  0  0  0  0  0
    5.1962   -0.0000    0.0000 C   0  0  0  0  0  0  0  0  0  0  0  0
    3.8971    0.7500    0.0000 C   0  0  0  0  0  0  0  0  0  0  0  0
    2.5981   -0.0000    0.0000 C   0  0  0  0  0  0  0  0  0  0  0  0
    1.2990    0.7500    0.0000 N   0  0  0  0  0  0  0  0  0  0  0  0
    0.0000    0.0000    0.0000 R   0  0  0  0  0  1  0  0  0  1  0  0
    2.5981   -1.5000    0.0000 C   0  0  0  0  0  0  0  0  0  0  0  0
    1.2990   -2.2500    0.0000 O   0  0  0  0  0  0  0  0  0  0  0  0
    3.8971   -2.2500    0.0000 R   0  0  0  0  0  1  0  0  0  2  0  0
  1  2  1  0
  2  3  2  0
  2  4  2  0
  2  5  1  0
  5  6  1  0
  7  6  1  6
  7  8  1  0
  8  9  1  0
  7 10  1  0
 10 11  2  0
 10 12  1  0
M  END
>  <id>  (507) 
af4c1406-8c4a-4802-a9f4-78a987566904

>  <Version>  (507) 
0

>  <Alias>  (507) 
D-Met(O2)

>  <Type>  (507) 
amino_acid

>  <Smiles>  (507) 
CS(=O)(=O)CC[C@@H](N[*:1])C(=O)[*:2]

>  <ProtectedSmiles>  (507) 
CS(=O)(=O)CC[C@@H](NC(=O)OCC1c2ccccc2-c2ccccc21)C(=O)O

>  <CAS>  (507) 
1247791-23-6

>  <User>  (507) 
sevan.h

>  <StereoComment>  (507) 
as drawn

>  <Name>  (507) 
 Fmoc-D-Met(O2)-Oh

>  <Code>  (507) 
D-Met(O2)

>  <AliasLowerCase>  (507) 
d-met(o2)

>  <LatestVersion>  (507) 
0.0

>  <createdAt>  (507) 
2026-01-14T12:15:24.154Z

>  <updatedAt>  (507) 
2026-01-14T12:15:24.154Z

>  <NumRotatableBonds>  (507) 
5

>  <is_N_methyl>  (507) 
False

>  <is_a_methyl>  (507) 
False

>  <is_alpha_aa>  (507) 
True

>  <is_beta_aa>  (507) 
False

>  <is_S100_aa>  (507) 
False

>  <Murcko_SMILES>  (507) 


$$$$

     RDKit          2D

 13 13  0  0  0  0  0  0  0  0999 V2000
    3.0000   -2.5981    0.0000 O   0  0  0  0  0  0  0  0  0  0  0  0
    3.7500   -1.2990    0.0000 C   0  0  0  0  0  0  0  0  0  0  0  0
    3.0000    0.0000    0.0000 C   0  0  0  0  0  0  0  0  0  0  0  0
    3.7500    1.2990    0.0000 N   0  0  0  0  0  0  0  0  0  0  0  0
    5.2500    1.2990    0.0000 R   0  0  0  0  0  1  0  0  0  1  0  0
    1.5000    0.0000    0.0000 C   0  0  0  0  0  0  0  0  0  0  0  0
    0.7500   -1.2990    0.0000 C   0  0  0  0  0  0  0  0  0  0  0  0
   -0.7500   -1.2990    0.0000 C   0  0  0  0  0  0  0  0  0  0  0  0
   -1.5000    0.0000    0.0000 C   0  0  0  0  0  0  0  0  0  0  0  0
   -0.7500    1.2990    0.0000 C   0  0  0  0  0  0  0  0  0  0  0  0
    0.7500    1.2990    0.0000 C   0  0  0  0  0  0  0  0  0  0  0  0
    1.5000    2.5981    0.0000 F   0  0  0  0  0  0  0  0  0  0  0  0
    5.2500   -1.2990    0.0000 R   0  0  0  0  0  1  0  0  0  2  0  0
  1  2  2  0
  2  3  1  0
  3  4  1  0
  4  5  1  0
  3  6  1  0
  6  7  2  0
  7  8  1  0
  8  9  2  0
  9 10  1  0
 10 11  2  0
 11 12  1  0
  2 13  1  0
 11  6  1  0
M  END
>  <id>  (508) 
56993d5c-d1d3-4908-ba27-d179e71f3740

>  <Version>  (508) 
0

>  <Alias>  (508) 
rac-2FPhg

>  <Type>  (508) 
amino_acid

>  <Smiles>  (508) 
O=C(C(N[*:1])c1ccccc1F)[*:2]

>  <ProtectedSmiles>  (508) 
O=C(NC(C(=O)O)c1ccccc1F)OCC1c2ccccc2-c2ccccc21

>  <CAS>  (508) 
433291-96-4

>  <User>  (508) 
clement.gensous@orbismedicines.com

>  <StereoComment>  (508) 
as drawn

>  <Name>  (508) 
rac-2FPhg

>  <Code>  (508) 
rac-2FPhg

>  <AliasLowerCase>  (508) 
rac-2fphg

>  <LatestVersion>  (508) 
0.0

>  <createdAt>  (508) 
2026-01-15T09:28:47.527Z

>  <updatedAt>  (508) 
2026-01-15T09:28:47.527Z

>  <NumRotatableBonds>  (508) 
3

>  <is_N_methyl>  (508) 
False

>  <is_a_methyl>  (508) 
False

>  <is_alpha_aa>  (508) 
True

>  <is_beta_aa>  (508) 
False

>  <is_S100_aa>  (508) 
False

>  <Murcko_SMILES>  (508) 
c1ccccc1

$$$$

     RDKit          2D

 14 15  0  0  0  0  0  0  0  0999 V2000
    3.0000   -5.1962    0.0000 O   0  0  0  0  0  0  0  0  0  0  0  0
    1.5000   -5.1962    0.0000 C   0  0  0  0  0  0  0  0  0  0  0  0
    0.7500   -3.8971    0.0000 C   0  0  0  0  0  0  0  0  0  0  0  0
    1.5000   -2.5981    0.0000 C   0  0  0  0  0  0  0  0  0  0  0  0
    0.7500   -1.2990    0.0000 C   0  0  0  0  0  0  0  0  0  0  0  0
    1.5000    0.0000    0.0000 C   0  0  0  0  0  0  0  0  0  0  0  0
    0.7500    1.2990    0.0000 C   0  0  0  0  0  0  0  0  0  0  0  0
   -0.7500    1.2990    0.0000 C   0  0  0  0  0  0  0  0  0  0  0  0
   -1.5000    0.0000    0.0000 C   0  0  0  0  0  0  0  0  0  0  0  0
   -0.7500   -1.2990    0.0000 C   0  0  0  0  0  0  0  0  0  0  0  0
   -1.5000   -2.5981    0.0000 C   0  0  0  0  0  0  0  0  0  0  0  0
   -0.7500   -3.8971    0.0000 N   0  0  0  0  0  0  0  0  0  0  0  0
   -1.5000   -5.1962    0.0000 R   0  0  0  0  0  1  0  0  0  1  0  0
    0.7500   -6.4952    0.0000 R   0  0  0  0  0  1  0  0  0  2  0  0
  1  2  2  0
  3  2  1  1
  3  4  1  0
  4  5  1  0
  5  6  2  0
  6  7  1  0
  7  8  2  0
  8  9  1  0
  9 10  2  0
 10 11  1  0
 11 12  1  0
 12 13  1  0
  2 14  1  0
 12  3  1  0
 10  5  1  0
M  END
>  <id>  (509) 
bb4f8159-c31d-4393-9ecf-b4128702f8f0

>  <Version>  (509) 
0

>  <Alias>  (509) 
Tic

>  <Type>  (509) 
amino_acid

>  <Smiles>  (509) 
O=C([C@@H]1Cc2ccccc2CN1[*:1])[*:2]

>  <ProtectedSmiles>  (509) 
O=C(O)[C@@H]1Cc2ccccc2CN1C(=O)OCC1c2ccccc2-c2ccccc21

>  <CAS>  (509) 
136030-33-6

>  <User>  (509) 
sevan.h

>  <StereoComment>  (509) 
as drawn

>  <Name>  (509) 
Fmoc-L-Tic-OH

>  <Code>  (509) 
Tic

>  <AliasLowerCase>  (509) 
tic

>  <LatestVersion>  (509) 
0.0

>  <createdAt>  (509) 
2026-01-14T12:17:31.409Z

>  <updatedAt>  (509) 
2026-01-14T12:17:31.409Z

>  <NumRotatableBonds>  (509) 
1

>  <is_N_methyl>  (509) 
False

>  <is_a_methyl>  (509) 
False

>  <is_alpha_aa>  (509) 
True

>  <is_beta_aa>  (509) 
False

>  <is_S100_aa>  (509) 
False

>  <Murcko_SMILES>  (509) 
c1ccc2c(c1)CCNC2

$$$$

     RDKit          2D

 10 10  0  0  0  0  0  0  0  0999 V2000
    2.7760    0.0000    0.0000 C   0  0  0  0  0  0  0  0  0  0  0  0
    1.2760    0.0000    0.0000 C   0  0  0  0  0  0  0  0  0  0  0  0
    0.3943    1.2135    0.0000 C   0  0  0  0  0  0  0  0  0  0  0  0
   -1.0323    0.7500    0.0000 C   0  0  0  0  0  0  0  0  0  0  0  0
   -1.0323   -0.7500    0.0000 C   0  0  0  0  0  0  0  0  0  0  0  0
   -2.2458   -1.6317    0.0000 C   0  0  0  0  0  0  0  0  0  0  0  0
   -2.0890   -3.1235    0.0000 O   0  0  0  0  0  0  0  0  0  0  0  0
   -3.6161   -1.0216    0.0000 R   0  0  0  0  0  1  0  0  0  2  0  0
    0.3943   -1.2135    0.0000 N   0  0  0  0  0  0  0  0  0  0  0  0
    0.8578   -2.6401    0.0000 R   0  0  0  0  0  1  0  0  0  1  0  0
  1  2  1  0
  2  3  1  0
  3  4  1  0
  4  5  1  0
  5  6  1  0
  6  7  2  0
  6  8  1  0
  5  9  1  0
  9 10  1  0
  9  2  1  0
M  END
>  <id>  (510) 
fce8faeb-1ba7-4e18-9f03-6e03b7c1d805

>  <Version>  (510) 
0

>  <Alias>  (510) 
rac-Pro(rac-5-Me)

>  <Type>  (510) 
amino_acid

>  <Smiles>  (510) 
CC1CCC(C(=O)[*:2])N1[*:1]

>  <ProtectedSmiles>  (510) 
CC1CCC(C(=O)O)N1C(=O)OCC1c2ccccc2-c2ccccc21

>  <CAS>  (510) 
1822504-92-6

>  <User>  (510) 
mischa.s

>  <StereoComment>  (510) 
as drawn

>  <Name>  (510) 
1-{[(9H-fluoren-9-yl)methoxy]carbonyl}-5-methylpyrrolidine-2-carboxylic acid

>  <Code>  (510) 
rac-Pro(rac-5-Me)

>  <AliasLowerCase>  (510) 
rac-pro(rac-5-me)

>  <LatestVersion>  (510) 
0.0

>  <createdAt>  (510) 
2026-01-14T11:33:20.388Z

>  <updatedAt>  (510) 
2026-01-14T11:33:20.388Z

>  <NumRotatableBonds>  (510) 
1

>  <is_N_methyl>  (510) 
False

>  <is_a_methyl>  (510) 
False

>  <is_alpha_aa>  (510) 
True

>  <is_beta_aa>  (510) 
False

>  <is_S100_aa>  (510) 
False

>  <Murcko_SMILES>  (510) 
C1CCNC1

$$$$

     RDKit          2D

  9  8  0  0  0  0  0  0  0  0999 V2000
    3.8971    2.2500    0.0000 O   0  0  0  0  0  0  0  0  0  0  0  0
    3.8971    0.7500    0.0000 C   0  0  0  0  0  0  0  0  0  0  0  0
    2.5981   -0.0000    0.0000 C   0  0  0  0  0  0  0  0  0  0  0  0
    1.2990    0.7500    0.0000 N   0  0  0  0  0  0  0  0  0  0  0  0
    0.0000    0.0000    0.0000 R   0  0  0  0  0  1  0  0  0  1  0  0
    2.5981   -1.5000    0.0000 C   0  0  0  0  0  0  0  0  0  0  0  0
    3.8971   -2.2500    0.0000 F   0  0  0  0  0  0  0  0  0  0  0  0
    1.2990   -2.2500    0.0000 F   0  0  0  0  0  0  0  0  0  0  0  0
    5.1962   -0.0000    0.0000 R   0  0  0  0  0  1  0  0  0  2  0  0
  1  2  2  0
  2  3  1  0
  3  4  1  6
  4  5  1  0
  3  6  1  0
  6  7  1  0
  6  8  1  0
  2  9  1  0
M  END
>  <id>  (511) 
c791c333-671d-47c2-b111-8259c1481840

>  <Version>  (511) 
0

>  <Alias>  (511) 
diFAla

>  <Type>  (511) 
amino_acid

>  <Smiles>  (511) 
O=C([C@@H](N[*:1])C(F)F)[*:2]

>  <ProtectedSmiles>  (511) 
O=C(N[C@H](C(=O)O)C(F)F)OCC1c2ccccc2-c2ccccc21

>  <CAS>  (511) 
925422-84-0

>  <User>  (511) 
angelica.l

>  <StereoComment>  (511) 
as drawn

>  <Name>  (511) 
(2R)-2-({[(9H-fluoren-9-yl)methoxy]carbonyl}amino)-3,3-difluoropropanoic acid

>  <Code>  (511) 
diFAla

>  <AliasLowerCase>  (511) 
difala

>  <LatestVersion>  (511) 
0.0

>  <createdAt>  (511) 
2026-01-14T11:33:34.439Z

>  <updatedAt>  (511) 
2026-01-14T11:33:34.439Z

>  <NumRotatableBonds>  (511) 
3

>  <is_N_methyl>  (511) 
False

>  <is_a_methyl>  (511) 
False

>  <is_alpha_aa>  (511) 
True

>  <is_beta_aa>  (511) 
False

>  <is_S100_aa>  (511) 
False

>  <Murcko_SMILES>  (511) 


$$$$

     RDKit          2D

 10 10  0  0  0  0  0  0  0  0999 V2000
    2.0788    2.4709    0.0000 O   0  0  0  0  0  0  0  0  0  0  0  0
    2.3907    1.0037    0.0000 C   0  0  0  0  0  0  0  0  0  0  0  0
    1.2760    0.0000    0.0000 C   0  0  0  0  0  0  0  0  0  0  0  0
    2.3907   -1.0037    0.0000 N   0  0  0  0  0  0  0  0  0  0  0  0
    2.0788   -2.4709    0.0000 R   0  0  0  0  0  1  0  0  0  1  0  0
    0.3943    1.2135    0.0000 C   0  0  0  0  0  0  0  0  0  0  0  0
   -1.0323    0.7500    0.0000 C   0  0  0  0  0  0  0  0  0  0  0  0
   -1.0323   -0.7500    0.0000 C   0  0  0  0  0  0  0  0  0  0  0  0
    0.3943   -1.2135    0.0000 C   0  0  0  0  0  0  0  0  0  0  0  0
    3.8173    0.5402    0.0000 R   0  0  0  0  0  1  0  0  0  2  0  0
  1  2  2  0
  2  3  1  0
  3  4  1  0
  4  5  1  0
  3  6  1  0
  6  7  1  0
  7  8  1  0
  8  9  1  0
  2 10  1  0
  9  3  1  0
M  END
>  <id>  (512) 
6045d1e0-63cf-48a8-8b15-f2b26c839e1c

>  <Version>  (512) 
0

>  <Alias>  (512) 
cLeu

>  <Type>  (512) 
amino_acid

>  <Smiles>  (512) 
O=C(C1(N[*:1])CCCC1)[*:2]

>  <ProtectedSmiles>  (512) 
O=C(NC1(C(=O)O)CCCC1)OCC1c2ccccc2-c2ccccc21

>  <CAS>  (512) 
117322-30-2

>  <User>  (512) 
sevan.h

>  <StereoComment>  (512) 
as drawn

>  <Name>  (512) 
Fmoc-cycloleucine-OH

>  <Code>  (512) 
cLeu

>  <AliasLowerCase>  (512) 
cleu

>  <LatestVersion>  (512) 
0.0

>  <createdAt>  (512) 
2026-01-14T12:17:06.052Z

>  <updatedAt>  (512) 
2026-01-14T12:17:06.052Z

>  <NumRotatableBonds>  (512) 
2

>  <is_N_methyl>  (512) 
False

>  <is_a_methyl>  (512) 
False

>  <is_alpha_aa>  (512) 
True

>  <is_beta_aa>  (512) 
False

>  <is_S100_aa>  (512) 
False

>  <Murcko_SMILES>  (512) 
C1CCCC1

$$$$

     RDKit          2D

 15 15  0  0  0  0  0  0  0  0999 V2000
    6.0000    0.0000    0.0000 O   0  0  0  0  0  0  0  0  0  0  0  0
    5.2500   -1.2990    0.0000 C   0  0  0  0  0  0  0  0  0  0  0  0
    3.7500   -1.2990    0.0000 C   0  0  0  0  0  0  0  0  0  0  0  0
    3.0000    0.0000    0.0000 C   0  0  0  0  0  0  0  0  0  0  0  0
    3.7500    1.2990    0.0000 N   0  0  0  0  0  0  0  0  0  0  0  0
    5.2500    1.2990    0.0000 R   0  0  0  0  0  1  0  0  0  1  0  0
    1.5000    0.0000    0.0000 C   0  0  0  0  0  0  0  0  0  0  0  0
    0.7500   -1.2990    0.0000 C   0  0  0  0  0  0  0  0  0  0  0  0
   -0.7500   -1.2990    0.0000 C   0  0  0  0  0  0  0  0  0  0  0  0
   -1.5000    0.0000    0.0000 C   0  0  0  0  0  0  0  0  0  0  0  0
   -3.0000    0.0000    0.0000 F   0  0  0  0  0  0  0  0  0  0  0  0
   -0.7500    1.2990    0.0000 C   0  0  0  0  0  0  0  0  0  0  0  0
    0.7500    1.2990    0.0000 C   0  0  0  0  0  0  0  0  0  0  0  0
    1.5000    2.5981    0.0000 F   0  0  0  0  0  0  0  0  0  0  0  0
    6.0000   -2.5981    0.0000 R   0  0  0  0  0  1  0  0  0  2  0  0
  1  2  2  0
  2  3  1  0
  4  3  1  6
  4  5  1  0
  5  6  1  0
  4  7  1  0
  7  8  2  0
  8  9  1  0
  9 10  2  0
 10 11  1  0
 10 12  1  0
 12 13  2  0
 13 14  1  0
  2 15  1  0
 13  7  1  0
M  END
>  <id>  (513) 
f2bf79a8-7bd9-4c5a-8cde-91248859fe14

>  <Version>  (513) 
0

>  <Alias>  (513) 
R-3-(2,4FPh)PA

>  <Type>  (513) 
amino_acid

>  <Smiles>  (513) 
O=C(C[C@@H](N[*:1])c1ccc(F)cc1F)[*:2]

>  <ProtectedSmiles>  (513) 
O=C(O)C[C@@H](NC(=O)OCC1c2ccccc2-c2ccccc21)c1ccc(F)cc1F

>  <CAS>  (513) 
1260614-57-0

>  <User>  (513) 
angelica.l

>  <StereoComment>  (513) 
as drawn

>  <Name>  (513) 
(3R)-3-(2,4-difluorophenyl)-3-({[(9H-fluoren-9-yl)methoxy]carbonyl}amino)propanoic acid

>  <Code>  (513) 
R-3-(2,4FPh)PA

>  <AliasLowerCase>  (513) 
r-3-(2,4fph)pa

>  <LatestVersion>  (513) 
0.0

>  <createdAt>  (513) 
2026-01-14T11:33:29.051Z

>  <updatedAt>  (513) 
2026-01-14T11:33:29.051Z

>  <NumRotatableBonds>  (513) 
4

>  <is_N_methyl>  (513) 
False

>  <is_a_methyl>  (513) 
False

>  <is_alpha_aa>  (513) 
False

>  <is_beta_aa>  (513) 
True

>  <is_S100_aa>  (513) 
False

>  <Murcko_SMILES>  (513) 
c1ccccc1

$$$$

     RDKit          2D

 16 17  0  0  0  0  0  0  0  0999 V2000
    3.7500   -3.8971    0.0000 C   0  0  0  0  0  0  0  0  0  0  0  0
    3.0000   -2.5981    0.0000 O   0  0  0  0  0  0  0  0  0  0  0  0
    1.5000   -2.5981    0.0000 C   0  0  0  0  0  0  0  0  0  0  0  0
    0.7500   -3.8971    0.0000 C   0  0  0  0  0  0  0  0  0  0  0  0
   -0.7500   -3.8971    0.0000 C   0  0  0  0  0  0  0  0  0  0  0  0
   -1.5000   -2.5981    0.0000 C   0  0  0  0  0  0  0  0  0  0  0  0
   -3.0000   -2.5981    0.0000 C   0  0  0  0  0  0  0  0  0  0  0  0
   -3.7500   -1.2990    0.0000 O   0  0  0  0  0  0  0  0  0  0  0  0
   -3.7500   -3.8971    0.0000 R   0  0  0  0  0  1  0  0  0  2  0  0
   -0.7500   -1.2990    0.0000 C   0  0  0  0  0  0  0  0  0  0  0  0
    0.7500   -1.2990    0.0000 C   0  0  0  0  0  0  0  0  0  0  0  0
    1.5000    0.0000    0.0000 C   0  0  0  0  0  0  0  0  0  0  0  0
    0.7500    1.2990    0.0000 N   0  0  0  0  0  0  0  0  0  0  0  0
    1.5000    2.5981    0.0000 R   0  0  0  0  0  1  0  0  0  1  0  0
   -0.7500    1.2990    0.0000 C   0  0  0  0  0  0  0  0  0  0  0  0
   -1.5000    0.0000    0.0000 C   0  0  0  0  0  0  0  0  0  0  0  0
  1  2  1  0
  2  3  1  0
  3  4  2  0
  4  5  1  0
  5  6  2  0
  6  7  1  0
  7  8  2  0
  7  9  1  0
  6 10  1  0
 10 11  2  0
 11 12  1  0
 12 13  1  0
 13 14  1  0
 13 15  1  0
 15 16  1  0
 11  3  1  0
 16 10  1  0
M  END
>  <id>  (514) 
b215a313-d2ee-4f0e-b94e-cdf9d3e2f048

>  <Version>  (514) 
0

>  <Alias>  (514) 
8MeOTHIQCA

>  <Type>  (514) 
amino_acid

>  <Smiles>  (514) 
COc1ccc(C(=O)[*:2])c2c1CN([*:1])CC2

>  <ProtectedSmiles>  (514) 
COc1ccc(C(=O)O)c2c1CN(C(=O)OCC1c3ccccc3-c3ccccc31)CC2

>  <CAS>  (514) 
2137734-29-1

>  <User>  (514) 
Sevan.habeshian@orbismedicines.com

>  <StereoComment>  (514) 
as drawn

>  <Name>  (514) 
N/A

>  <Code>  (514) 
8MeOTHIQCA

>  <AliasLowerCase>  (514) 
8meothiqca

>  <LatestVersion>  (514) 
0.0

>  <createdAt>  (514) 
2026-02-13T09:56:36.406Z

>  <updatedAt>  (514) 
2026-02-13T09:56:36.406Z

>  <NumRotatableBonds>  (514) 
2

>  <is_N_methyl>  (514) 
False

>  <is_a_methyl>  (514) 
False

>  <is_alpha_aa>  (514) 
False

>  <is_beta_aa>  (514) 
False

>  <is_S100_aa>  (514) 
False

>  <Murcko_SMILES>  (514) 
c1ccc2c(c1)CCNC2

$$$$

     RDKit          2D

  9  8  0  0  0  0  0  0  0  0999 V2000
    6.4952    0.7500    0.0000 C   0  0  0  0  0  0  0  0  0  0  0  0
    5.1962   -0.0000    0.0000 C   0  0  0  0  0  0  0  0  0  0  0  0
    3.8971    0.7500    0.0000 C   0  0  0  0  0  0  0  0  0  0  0  0
    2.5981   -0.0000    0.0000 C   0  0  0  0  0  0  0  0  0  0  0  0
    1.2990    0.7500    0.0000 N   0  0  0  0  0  0  0  0  0  0  0  0
    0.0000    0.0000    0.0000 R   0  0  0  0  0  1  0  0  0  1  0  0
    2.5981   -1.5000    0.0000 C   0  0  0  0  0  0  0  0  0  0  0  0
    1.2990   -2.2500    0.0000 O   0  0  0  0  0  0  0  0  0  0  0  0
    3.8971   -2.2500    0.0000 R   0  0  0  0  0  1  0  0  0  2  0  0
  1  2  1  0
  2  3  1  0
  3  4  1  0
  4  5  1  0
  5  6  1  0
  4  7  1  0
  7  8  2  0
  7  9  1  0
M  END
>  <id>  (515) 
c04cd8d8-9c71-4490-bf9e-5f3cbb68682d

>  <Version>  (515) 
0

>  <Alias>  (515) 
racNva

>  <Type>  (515) 
amino_acid

>  <Smiles>  (515) 
CCCC(N[*:1])C(=O)[*:2]

>  <ProtectedSmiles>  (515) 
CCCC(NC(=O)OCC1c2ccccc2-c2ccccc21)C(=O)O

>  <CAS>  (515) 
144701-21-3

>  <User>  (515) 
clement.gensous@orbismedicines.com

>  <StereoComment>  (515) 
as drawn

>  <Name>  (515) 
racNva

>  <Code>  (515) 
racNva

>  <AliasLowerCase>  (515) 
racnva

>  <LatestVersion>  (515) 
0.0

>  <createdAt>  (515) 
2026-01-15T09:28:51.945Z

>  <updatedAt>  (515) 
2026-01-15T09:28:51.945Z

>  <NumRotatableBonds>  (515) 
4

>  <is_N_methyl>  (515) 
False

>  <is_a_methyl>  (515) 
False

>  <is_alpha_aa>  (515) 
True

>  <is_beta_aa>  (515) 
False

>  <is_S100_aa>  (515) 
False

>  <Murcko_SMILES>  (515) 


$$$$

     RDKit          2D

 13 13  0  0  0  0  0  0  0  0999 V2000
    6.0000    0.0000    0.0000 O   0  0  0  0  0  0  0  0  0  0  0  0
    5.2500   -1.2990    0.0000 C   0  0  0  0  0  0  0  0  0  0  0  0
    3.7500   -1.2990    0.0000 C   0  0  0  0  0  0  0  0  0  0  0  0
    3.0000    0.0000    0.0000 C   0  0  0  0  0  0  0  0  0  0  0  0
    1.5000    0.0000    0.0000 C   0  0  0  0  0  0  0  0  0  0  0  0
    0.7500   -1.2990    0.0000 C   0  0  0  0  0  0  0  0  0  0  0  0
   -0.7500   -1.2990    0.0000 C   0  0  0  0  0  0  0  0  0  0  0  0
   -1.5000    0.0000    0.0000 N   0  0  0  0  0  0  0  0  0  0  0  0
   -0.7500    1.2990    0.0000 C   0  0  0  0  0  0  0  0  0  0  0  0
    0.7500    1.2990    0.0000 C   0  0  0  0  0  0  0  0  0  0  0  0
    3.0000   -2.5981    0.0000 N   0  0  0  0  0  0  0  0  0  0  0  0
    3.7500   -3.8971    0.0000 R   0  0  0  0  0  1  0  0  0  1  0  0
    6.0000   -2.5981    0.0000 R   0  0  0  0  0  1  0  0  0  2  0  0
  1  2  2  0
  2  3  1  0
  3  4  1  6
  4  5  1  0
  5  6  2  0
  6  7  1  0
  7  8  2  0
  8  9  1  0
  9 10  2  0
  3 11  1  0
 11 12  1  0
  2 13  1  0
 10  5  1  0
M  END
>  <id>  (516) 
f61dcfac-3e95-4c65-85e7-983324c59d12

>  <Version>  (516) 
0

>  <Alias>  (516) 
D-4Pyr

>  <Type>  (516) 
amino_acid

>  <Smiles>  (516) 
O=C([C@@H](Cc1ccncc1)N[*:1])[*:2]

>  <ProtectedSmiles>  (516) 
O=C(N[C@H](Cc1ccncc1)C(=O)O)OCC1c2ccccc2-c2ccccc21

>  <CAS>  (516) 
205528-30-9

>  <User>  (516) 
sevan.h

>  <StereoComment>  (516) 
as drawn

>  <Name>  (516) 
Fmoc-D-(4-pyridyl)alanine

>  <Code>  (516) 
D-4Pyr

>  <AliasLowerCase>  (516) 
d-4pyr

>  <LatestVersion>  (516) 
0.0

>  <createdAt>  (516) 
2026-01-14T12:16:22.194Z

>  <updatedAt>  (516) 
2026-01-14T12:16:22.194Z

>  <NumRotatableBonds>  (516) 
4

>  <is_N_methyl>  (516) 
False

>  <is_a_methyl>  (516) 
False

>  <is_alpha_aa>  (516) 
True

>  <is_beta_aa>  (516) 
False

>  <is_S100_aa>  (516) 
False

>  <Murcko_SMILES>  (516) 
c1ccncc1

$$$$

     RDKit          2D

  9  8  0  0  0  0  0  0  0  0999 V2000
    5.1962   -0.0000    0.0000 C   0  0  0  0  0  0  0  0  0  0  0  0
    3.8971    0.7500    0.0000 C   0  0  0  0  0  0  0  0  0  0  0  0
    3.8971    2.2500    0.0000 O   0  0  0  0  0  0  0  0  0  0  0  0
    2.5981   -0.0000    0.0000 C   0  0  0  0  0  0  0  0  0  0  0  0
    1.2990    0.7500    0.0000 N   0  0  0  0  0  0  0  0  0  0  0  0
    0.0000    0.0000    0.0000 R   0  0  0  0  0  1  0  0  0  1  0  0
    2.5981   -1.5000    0.0000 C   0  0  0  0  0  0  0  0  0  0  0  0
    1.2990   -2.2500    0.0000 O   0  0  0  0  0  0  0  0  0  0  0  0
    3.8971   -2.2500    0.0000 R   0  0  0  0  0  1  0  0  0  2  0  0
  2  1  1  6
  2  3  1  0
  2  4  1  0
  4  5  1  6
  5  6  1  0
  4  7  1  0
  7  8  2  0
  7  9  1  0
M  END
>  <id>  (517) 
80895930-3d6f-499f-8852-0be4e37d40b4

>  <Version>  (517) 
0

>  <Alias>  (517) 
(2R,3R)Thr

>  <Type>  (517) 
amino_acid

>  <Smiles>  (517) 
C[C@@H](O)[C@@H](N[*:1])C(=O)[*:2]

>  <ProtectedSmiles>  (517) 
C[C@@H](O)[C@@H](NC(=O)OCC1c2ccccc2-c2ccccc21)C(=O)O

>  <CAS>  (517) 
130674-54-3

>  <User>  (517) 
angelica.l

>  <StereoComment>  (517) 
as drawn

>  <Name>  (517) 
(2R,3R)-2-({[(9H-fluoren-9-yl)methoxy]carbonyl}amino)-3-hydroxybutanoic acid

>  <Code>  (517) 
(2R,3R)Thr

>  <AliasLowerCase>  (517) 
(2r,3r)thr

>  <LatestVersion>  (517) 
0.0

>  <createdAt>  (517) 
2026-01-14T11:35:26.246Z

>  <updatedAt>  (517) 
2026-01-14T11:35:26.246Z

>  <NumRotatableBonds>  (517) 
3

>  <is_N_methyl>  (517) 
False

>  <is_a_methyl>  (517) 
False

>  <is_alpha_aa>  (517) 
True

>  <is_beta_aa>  (517) 
False

>  <is_S100_aa>  (517) 
False

>  <Murcko_SMILES>  (517) 


$$$$

     RDKit          2D

 15 16  0  0  0  0  0  0  0  0999 V2000
    3.5260    1.2990    0.0000 O   0  0  0  0  0  0  0  0  0  0  0  0
    2.7760    0.0000    0.0000 C   0  0  0  0  0  0  0  0  0  0  0  0
    1.2760    0.0000    0.0000 C   0  0  0  0  0  0  0  0  0  0  0  0
    0.3943    1.2135    0.0000 C   0  0  0  0  0  0  0  0  0  0  0  0
   -1.0323    0.7500    0.0000 C   0  0  0  0  0  0  0  0  0  0  0  0
   -2.2458    1.6317    0.0000 C   0  0  0  0  0  0  0  0  0  0  0  0
   -2.0890    3.1235    0.0000 C   0  0  0  0  0  0  0  0  0  0  0  0
   -3.2037    4.1272    0.0000 C   0  0  0  0  0  0  0  0  0  0  0  0
   -2.5936    5.4975    0.0000 C   0  0  0  0  0  0  0  0  0  0  0  0
   -1.1018    5.3407    0.0000 C   0  0  0  0  0  0  0  0  0  0  0  0
   -0.7900    3.8735    0.0000 O   0  0  0  0  0  0  0  0  0  0  0  0
   -1.0323   -0.7500    0.0000 C   0  0  0  0  0  0  0  0  0  0  0  0
    0.3943   -1.2135    0.0000 N   0  0  0  0  0  0  0  0  0  0  0  0
    0.8578   -2.6401    0.0000 R   0  0  0  0  0  1  0  0  0  1  0  0
    3.5260   -1.2990    0.0000 R   0  0  0  0  0  1  0  0  0  2  0  0
  1  2  2  0
  2  3  1  0
  3  4  1  0
  4  5  1  0
  5  6  1  0
  6  7  1  0
  7  8  1  0
  8  9  1  0
  9 10  1  0
 10 11  1  0
  5 12  1  0
 12 13  1  0
 13 14  1  0
  2 15  1  0
 13  3  1  0
 11  7  1  0
M  END
>  <id>  (518) 
034f96c5-2e05-4a09-84f4-9a8da718c3c6

>  <Version>  (518) 
0

>  <Alias>  (518) 
Oxa_MePyrr

>  <Type>  (518) 
amino_acid

>  <Smiles>  (518) 
O=C(C1CC(CC2CCCO2)CN1[*:1])[*:2]

>  <ProtectedSmiles>  (518) 
O=C(O)C1CC(CC2CCCO2)CN1C(=O)OCC1c2ccccc2-c2ccccc21

>  <CAS>  (518) 
2344679-15-6

>  <User>  (518) 
alice.granger@orbismedicines.com

>  <StereoComment>  (518) 
as drawn

>  <Name>  (518) 
1-[(tert-butoxy)carbonyl]-4-[(oxolan-2-yl)methyl]pyrrolidine-2-carboxylic acid

>  <Code>  (518) 
Oxa_MePyrr

>  <AliasLowerCase>  (518) 
oxa_mepyrr

>  <LatestVersion>  (518) 
0.0

>  <createdAt>  (518) 
2026-03-11T10:37:04.561Z

>  <updatedAt>  (518) 
2026-03-11T10:37:04.561Z

>  <NumRotatableBonds>  (518) 
3

>  <is_N_methyl>  (518) 
False

>  <is_a_methyl>  (518) 
False

>  <is_alpha_aa>  (518) 
True

>  <is_beta_aa>  (518) 
False

>  <is_S100_aa>  (518) 
False

>  <Murcko_SMILES>  (518) 
C1COC(CC2CCNC2)C1

$$$$

     RDKit          2D

  8  7  0  0  0  0  0  0  0  0999 V2000
    1.2990   -2.2500    0.0000 O   0  0  0  0  0  0  0  0  0  0  0  0
    2.5981   -1.5000    0.0000 C   0  0  0  0  0  0  0  0  0  0  0  0
    2.5981   -0.0000    0.0000 C   0  0  0  0  0  0  0  0  0  0  0  0
    3.8971    0.7500    0.0000 C   0  0  0  0  0  0  0  0  0  0  0  0
    5.1962   -0.0000    0.0000 O   0  0  0  0  0  0  0  0  0  0  0  0
    1.2990    0.7500    0.0000 N   0  0  0  0  0  0  0  0  0  0  0  0
    0.0000    0.0000    0.0000 R   0  0  0  0  0  1  0  0  0  1  0  0
    3.8971   -2.2500    0.0000 R   0  0  0  0  0  1  0  0  0  2  0  0
  1  2  2  0
  2  3  1  0
  3  4  1  0
  4  5  1  0
  3  6  1  0
  6  7  1  0
  2  8  1  0
M  END
>  <id>  (519) 
003c5a3f-dfd2-433e-a623-567addda78c2

>  <Version>  (519) 
0

>  <Alias>  (519) 
rac-Ser_UP

>  <Type>  (519) 
amino_acid

>  <Smiles>  (519) 
O=C(C(CO)N[*:1])[*:2]

>  <ProtectedSmiles>  (519) 
O=C(NC(CO)C(=O)O)OCC1c2ccccc2-c2ccccc21

>  <CAS>  (519) 
136083-72-2

>  <User>  (519) 
Sevan.habeshian@orbismedicines.com

>  <StereoComment>  (519) 
as drawn

>  <Name>  (519) 
N/A

>  <Code>  (519) 
rac-Ser_UP

>  <AliasLowerCase>  (519) 
rac-ser_up

>  <LatestVersion>  (519) 
0.0

>  <createdAt>  (519) 
2026-02-13T09:56:35.394Z

>  <updatedAt>  (519) 
2026-02-13T09:56:35.394Z

>  <NumRotatableBonds>  (519) 
3

>  <is_N_methyl>  (519) 
False

>  <is_a_methyl>  (519) 
False

>  <is_alpha_aa>  (519) 
True

>  <is_beta_aa>  (519) 
False

>  <is_S100_aa>  (519) 
False

>  <Murcko_SMILES>  (519) 


$$$$

     RDKit          2D

 11 10  0  0  0  0  0  0  0  0999 V2000
    6.4952    5.2500    0.0000 C   0  0  0  0  0  0  0  0  0  0  0  0
    5.1962    4.5000    0.0000 C   0  0  0  0  0  0  0  0  0  0  0  0
    3.8971    5.2500    0.0000 C   0  0  0  0  0  0  0  0  0  0  0  0
    5.1962    3.0000    0.0000 C   0  0  0  0  0  0  0  0  0  0  0  0
    3.8971    2.2500    0.0000 C   0  0  0  0  0  0  0  0  0  0  0  0
    3.8971    0.7500    0.0000 N   0  0  0  0  0  0  0  0  0  0  0  0
    2.5981   -0.0000    0.0000 C   0  0  0  0  0  0  0  0  0  0  0  0
    1.2990    0.7500    0.0000 C   0  0  0  0  0  0  0  0  0  0  0  0
    1.2990    2.2500    0.0000 O   0  0  0  0  0  0  0  0  0  0  0  0
    0.0000    0.0000    0.0000 R   0  0  0  0  0  1  0  0  0  2  0  0
    5.1962   -0.0000    0.0000 R   0  0  0  0  0  1  0  0  0  1  0  0
  1  2  1  0
  2  3  1  0
  2  4  1  0
  4  5  1  0
  5  6  1  0
  6  7  1  0
  7  8  1  0
  8  9  2  0
  8 10  1  0
  6 11  1  0
M  END
>  <id>  (520) 
790f300d-7108-4339-a3cc-70197abf0251

>  <Version>  (520) 
0

>  <Alias>  (520) 
N(Isp)Gly

>  <Type>  (520) 
amino_acid

>  <Smiles>  (520) 
CC(C)CCN(CC(=O)[*:2])[*:1]

>  <ProtectedSmiles>  (520) 
CC(C)CCN(CC(=O)O)C(=O)OCC1c2ccccc2-c2ccccc21

>  <CAS>  (520) 
2255321-55-0

>  <User>  (520) 
mischa.s

>  <StereoComment>  (520) 
as drawn

>  <Name>  (520) 
N-Fmoc-N-isopentylglycine

>  <Code>  (520) 
N(Isp)Gly

>  <AliasLowerCase>  (520) 
n(isp)gly

>  <LatestVersion>  (520) 
0.0

>  <createdAt>  (520) 
2026-01-14T11:33:18.164Z

>  <updatedAt>  (520) 
2026-01-14T11:33:18.164Z

>  <NumRotatableBonds>  (520) 
5

>  <is_N_methyl>  (520) 
False

>  <is_a_methyl>  (520) 
False

>  <is_alpha_aa>  (520) 
True

>  <is_beta_aa>  (520) 
False

>  <is_S100_aa>  (520) 
False

>  <Murcko_SMILES>  (520) 


$$$$

     RDKit          2D

 14 14  0  0  0  0  0  0  0  0999 V2000
    3.0000    0.0000    0.0000 C   0  0  0  0  0  0  0  0  0  0  0  0
    1.5000    0.0000    0.0000 C   0  0  0  0  0  0  0  0  0  0  0  0
    0.7500   -1.2990    0.0000 C   0  0  0  0  0  0  0  0  0  0  0  0
   -0.7500   -1.2990    0.0000 C   0  0  0  0  0  0  0  0  0  0  0  0
   -1.5000    0.0000    0.0000 C   0  0  0  0  0  0  0  0  0  0  0  0
   -0.7500    1.2990    0.0000 C   0  0  0  0  0  0  0  0  0  0  0  0
   -1.5000    2.5981    0.0000 C   0  0  0  0  0  0  0  0  0  0  0  0
   -0.7500    3.8971    0.0000 C   0  0  0  0  0  0  0  0  0  0  0  0
    0.7500    3.8971    0.0000 N   0  0  0  0  0  0  0  0  0  0  0  0
    1.5000    5.1962    0.0000 R   0  0  0  0  0  1  0  0  0  1  0  0
   -1.5000    5.1962    0.0000 C   0  0  0  0  0  0  0  0  0  0  0  0
   -3.0000    5.1962    0.0000 O   0  0  0  0  0  0  0  0  0  0  0  0
   -0.7500    6.4952    0.0000 R   0  0  0  0  0  1  0  0  0  2  0  0
    0.7500    1.2990    0.0000 C   0  0  0  0  0  0  0  0  0  0  0  0
  1  2  1  0
  2  3  2  0
  3  4  1  0
  4  5  2  0
  5  6  1  0
  6  7  1  0
  8  7  1  6
  8  9  1  0
  9 10  1  0
  8 11  1  0
 11 12  2  0
 11 13  1  0
  6 14  2  0
 14  2  1  0
M  END
>  <id>  (521) 
2bc1b98a-eae7-47ec-86a4-8de836bc8770

>  <Version>  (521) 
0

>  <Alias>  (521) 
D-3MePhe

>  <Type>  (521) 
amino_acid

>  <Smiles>  (521) 
Cc1cccc(C[C@@H](N[*:1])C(=O)[*:2])c1

>  <ProtectedSmiles>  (521) 
Cc1cccc(C[C@@H](NC(=O)OCC2c3ccccc3-c3ccccc32)C(=O)O)c1

>  <CAS>  (521) 
352351-64-5

>  <User>  (521) 
mischa.s

>  <StereoComment>  (521) 
as drawn

>  <Name>  (521) 
Fmoc-D-3-Methylphenylalanine

>  <Code>  (521) 
D-3MePhe

>  <AliasLowerCase>  (521) 
d-3mephe

>  <LatestVersion>  (521) 
0.0

>  <createdAt>  (521) 
2026-01-14T11:34:54.533Z

>  <updatedAt>  (521) 
2026-01-14T11:34:54.533Z

>  <NumRotatableBonds>  (521) 
4

>  <is_N_methyl>  (521) 
False

>  <is_a_methyl>  (521) 
False

>  <is_alpha_aa>  (521) 
True

>  <is_beta_aa>  (521) 
False

>  <is_S100_aa>  (521) 
False

>  <Murcko_SMILES>  (521) 
c1ccccc1

$$$$

     RDKit          2D

 12 12  0  0  0  0  0  0  0  0999 V2000
    3.0000   -2.5981    0.0000 O   0  0  0  0  0  0  0  0  0  0  0  0
    3.7500   -1.2990    0.0000 C   0  0  0  0  0  0  0  0  0  0  0  0
    3.0000    0.0000    0.0000 C   0  0  0  0  0  0  0  0  0  0  0  0
    3.7500    1.2990    0.0000 N   0  0  0  0  0  0  0  0  0  0  0  0
    5.2500    1.2990    0.0000 R   0  0  0  0  0  1  0  0  0  1  0  0
    1.5000    0.0000    0.0000 C   0  0  0  0  0  0  0  0  0  0  0  0
    0.7500   -1.2990    0.0000 C   0  0  0  0  0  0  0  0  0  0  0  0
   -0.7500   -1.2990    0.0000 C   0  0  0  0  0  0  0  0  0  0  0  0
   -1.5000    0.0000    0.0000 C   0  0  0  0  0  0  0  0  0  0  0  0
   -0.7500    1.2990    0.0000 N   0  0  0  0  0  0  0  0  0  0  0  0
    0.7500    1.2990    0.0000 C   0  0  0  0  0  0  0  0  0  0  0  0
    5.2500   -1.2990    0.0000 R   0  0  0  0  0  1  0  0  0  2  0  0
  1  2  2  0
  2  3  1  0
  3  4  1  0
  4  5  1  0
  3  6  1  0
  6  7  2  0
  7  8  1  0
  8  9  2  0
  9 10  1  0
 10 11  2  0
  2 12  1  0
 11  6  1  0
M  END
>  <id>  (522) 
5c2d5cee-ac7e-4e7c-ba64-5da7481d7701

>  <Version>  (522) 
0

>  <Alias>  (522) 
rac-3Pyg

>  <Type>  (522) 
amino_acid

>  <Smiles>  (522) 
O=C(C(N[*:1])c1cccnc1)[*:2]

>  <ProtectedSmiles>  (522) 
O=C(NC(C(=O)O)c1cccnc1)OCC1c2ccccc2-c2ccccc21

>  <CAS>  (522) 
494210-71-8

>  <User>  (522) 
mischa.s

>  <StereoComment>  (522) 
as drawn

>  <Name>  (522) 
2-({[(9H-fluoren-9-yl)methoxy]carbonyl}amino)-2-(pyridin-3-yl)acetic acid

>  <Code>  (522) 
rac-3Pyg

>  <AliasLowerCase>  (522) 
rac-3pyg

>  <LatestVersion>  (522) 
0.0

>  <createdAt>  (522) 
2026-01-14T11:32:59.919Z

>  <updatedAt>  (522) 
2026-01-14T11:32:59.919Z

>  <NumRotatableBonds>  (522) 
3

>  <is_N_methyl>  (522) 
False

>  <is_a_methyl>  (522) 
False

>  <is_alpha_aa>  (522) 
True

>  <is_beta_aa>  (522) 
False

>  <is_S100_aa>  (522) 
False

>  <Murcko_SMILES>  (522) 
c1ccncc1

$$$$

     RDKit          2D

  0  0  0  0  0  0  0  0  0  0999 V3000
M  V30 BEGIN CTAB
M  V30 COUNTS 15 16 0 0 0
M  V30 BEGIN ATOM
M  V30 1 O -1.581022 -3.165545 0.000000 0
M  V30 2 C -0.577326 -4.280262 0.000000 0
M  V30 3 C 0.889895 -3.968394 0.000000 0
M  V30 4 C 2.004612 -4.972090 0.000000 0
M  V30 5 N 3.303650 -4.222090 0.000000 0
M  V30 6 "NOT [H]" 4.673969 -4.832195 0.000000 1
M  V30 7 C 2.991783 -2.754869 0.000000 0
M  V30 8 C 1.500000 -2.598076 0.000000 0
M  V30 9 C 0.750000 -1.299038 0.000000 0
M  V30 10 C 1.500000 0.000000 0.000000 0
M  V30 11 C 0.750000 1.299038 0.000000 0
M  V30 12 N -0.750000 1.299038 0.000000 0
M  V30 13 C -1.500000 0.000000 0.000000 0
M  V30 14 C -0.750000 -1.299038 0.000000 0
M  V30 15 "NOT [H]" -1.040852 -5.706847 0.000000 2
M  V30 END ATOM
M  V30 BEGIN BOND
M  V30 1 2 1 2
M  V30 2 1 3 2 CFG=1
M  V30 3 1 3 4
M  V30 4 1 4 5
M  V30 5 1 5 6
M  V30 6 1 5 7
M  V30 7 1 7 8
M  V30 8 1 8 9 CFG=3
M  V30 9 2 9 10
M  V30 10 1 10 11
M  V30 11 2 11 12
M  V30 12 1 12 13
M  V30 13 2 13 14
M  V30 14 1 2 15
M  V30 15 1 8 3
M  V30 16 1 14 9
M  V30 END BOND
M  V30 BEGIN COLLECTION
M  V30 MDLV30/STERAC1 ATOMS=(2 3 8)
M  V30 END COLLECTION
M  V30 END CTAB
M  END
>  <id>  (523) 
259a9300-8bf2-4392-879c-91aa32292245

>  <Version>  (523) 
0

>  <Alias>  (523) 
trans4PyrPyrrCA

>  <Type>  (523) 
amino_acid

>  <Smiles>  (523) 
O=C([C@@H]1CN([*:1])C[C@H]1c1ccncc1)[*:2] |&1:2,7|

>  <ProtectedSmiles>  (523) 
O=C(O)[C@@H]1CN(C(=O)OCC2c3ccccc3-c3ccccc32)C[C@H]1c1ccncc1 |&1:3,24|

>  <CAS>  (523) 
2350663-23-7

>  <User>  (523) 
cs@orbismedicines.com

>  <StereoComment>  (523) 
rac-trans

>  <Name>  (523) 
rac-(3R,4S)-1-{[(9H-fluoren-9-yl)methoxy]carbonyl}-4-(pyridin-4-yl)pyrrolidine-3-carboxylic acid

>  <Code>  (523) 
trans4PyrPyrrCA

>  <AliasLowerCase>  (523) 
trans4pyrpyrrca

>  <LatestVersion>  (523) 
0.0

>  <createdAt>  (523) 
2026-02-03T08:56:00.218Z

>  <updatedAt>  (523) 
2026-02-03T08:56:00.218Z

>  <NumRotatableBonds>  (523) 
2

>  <is_N_methyl>  (523) 
False

>  <is_a_methyl>  (523) 
False

>  <is_alpha_aa>  (523) 
False

>  <is_beta_aa>  (523) 
True

>  <is_S100_aa>  (523) 
False

>  <Murcko_SMILES>  (523) 
c1cc([C@H]2CCNC2)ccn1 |&1:3|

$$$$

     RDKit          2D

 17 18  0  0  0  0  0  0  0  0999 V2000
   -6.0000   -2.5981    0.0000 O   0  0  0  0  0  0  0  0  0  0  0  0
   -5.2500   -3.8971    0.0000 C   0  0  0  0  0  0  0  0  0  0  0  0
   -3.7500   -3.8971    0.0000 C   0  0  0  0  0  0  0  0  0  0  0  0
   -3.0000   -2.5981    0.0000 C   0  0  0  0  0  0  0  0  0  0  0  0
   -1.5000   -2.5981    0.0000 C   0  0  0  0  0  0  0  0  0  0  0  0
   -0.7500   -3.8971    0.0000 C   0  0  0  0  0  0  0  0  0  0  0  0
    0.7500   -3.8971    0.0000 C   0  0  0  0  0  0  0  0  0  0  0  0
    1.5000   -2.5981    0.0000 C   0  0  0  0  0  0  0  0  0  0  0  0
    0.7500   -1.2990    0.0000 C   0  0  0  0  0  0  0  0  0  0  0  0
    1.5000    0.0000    0.0000 C   0  0  0  0  0  0  0  0  0  0  0  0
    0.7500    1.2990    0.0000 C   0  0  0  0  0  0  0  0  0  0  0  0
   -0.7500    1.2990    0.0000 C   0  0  0  0  0  0  0  0  0  0  0  0
   -1.5000    0.0000    0.0000 C   0  0  0  0  0  0  0  0  0  0  0  0
   -0.7500   -1.2990    0.0000 C   0  0  0  0  0  0  0  0  0  0  0  0
   -3.0000   -5.1962    0.0000 N   0  0  0  0  0  0  0  0  0  0  0  0
   -3.7500   -6.4952    0.0000 R   0  0  0  0  0  1  0  0  0  1  0  0
   -6.0000   -5.1962    0.0000 R   0  0  0  0  0  1  0  0  0  2  0  0
  1  2  2  0
  2  3  1  0
  3  4  1  6
  4  5  1  0
  5  6  2  0
  6  7  1  0
  7  8  2  0
  8  9  1  0
  9 10  2  0
 10 11  1  0
 11 12  2  0
 12 13  1  0
 13 14  2  0
  3 15  1  0
 15 16  1  0
  2 17  1  0
 14  5  1  0
 14  9  1  0
M  END
>  <id>  (524) 
8b7b9670-3e73-4181-b22f-b2a6bcccba50

>  <Version>  (524) 
0

>  <Alias>  (524) 
1Nal

>  <Type>  (524) 
amino_acid

>  <Smiles>  (524) 
O=C([C@H](Cc1cccc2ccccc12)N[*:1])[*:2]

>  <ProtectedSmiles>  (524) 
O=C(N[C@@H](Cc1cccc2ccccc12)C(=O)O)OCC1c2ccccc2-c2ccccc21

>  <CAS>  (524) 
96402-49-2

>  <User>  (524) 
sevan.h

>  <StereoComment>  (524) 
as drawn

>  <Name>  (524) 
Fmoc-1-Nal-OH

>  <Code>  (524) 
1Nal

>  <AliasLowerCase>  (524) 
1nal

>  <LatestVersion>  (524) 
0.0

>  <createdAt>  (524) 
2026-01-14T12:17:02.343Z

>  <updatedAt>  (524) 
2026-01-14T12:17:02.343Z

>  <NumRotatableBonds>  (524) 
4

>  <is_N_methyl>  (524) 
False

>  <is_a_methyl>  (524) 
False

>  <is_alpha_aa>  (524) 
True

>  <is_beta_aa>  (524) 
False

>  <is_S100_aa>  (524) 
False

>  <Murcko_SMILES>  (524) 
c1ccc2ccccc2c1

$$$$

     RDKit          2D

 14 14  0  0  0  0  0  0  0  0999 V2000
    6.0000    0.0000    0.0000 O   0  0  0  0  0  0  0  0  0  0  0  0
    5.2500   -1.2990    0.0000 C   0  0  0  0  0  0  0  0  0  0  0  0
    3.7500   -1.2990    0.0000 C   0  0  0  0  0  0  0  0  0  0  0  0
    3.0000    0.0000    0.0000 C   0  0  0  0  0  0  0  0  0  0  0  0
    1.5000    0.0000    0.0000 C   0  0  0  0  0  0  0  0  0  0  0  0
    0.7500   -1.2990    0.0000 C   0  0  0  0  0  0  0  0  0  0  0  0
   -0.7500   -1.2990    0.0000 C   0  0  0  0  0  0  0  0  0  0  0  0
   -1.5000    0.0000    0.0000 C   0  0  0  0  0  0  0  0  0  0  0  0
   -3.0000    0.0000    0.0000 F   0  0  0  0  0  0  0  0  0  0  0  0
   -0.7500    1.2990    0.0000 C   0  0  0  0  0  0  0  0  0  0  0  0
    0.7500    1.2990    0.0000 C   0  0  0  0  0  0  0  0  0  0  0  0
    3.0000   -2.5981    0.0000 N   0  0  0  0  0  0  0  0  0  0  0  0
    3.7500   -3.8971    0.0000 R   0  0  0  0  0  1  0  0  0  1  0  0
    6.0000   -2.5981    0.0000 R   0  0  0  0  0  1  0  0  0  2  0  0
  1  2  2  0
  2  3  1  0
  3  4  1  0
  4  5  1  0
  5  6  2  0
  6  7  1  0
  7  8  2  0
  8  9  1  0
  8 10  1  0
 10 11  2  0
  3 12  1  0
 12 13  1  0
  2 14  1  0
 11  5  1  0
M  END
>  <id>  (525) 
b0792398-bd23-45cb-81b1-51f17a8f67de

>  <Version>  (525) 
0

>  <Alias>  (525) 
rac-4FPhe

>  <Type>  (525) 
amino_acid

>  <Smiles>  (525) 
O=C(C(Cc1ccc(F)cc1)N[*:1])[*:2]

>  <ProtectedSmiles>  (525) 
O=C(NC(Cc1ccc(F)cc1)C(=O)O)OCC1c2ccccc2-c2ccccc21

>  <CAS>  (525) 
264276-42-8

>  <User>  (525) 
Sevan.habeshian@orbismedicines.com

>  <StereoComment>  (525) 
as drawn

>  <Name>  (525) 
N/A

>  <Code>  (525) 
rac-4FPhe

>  <AliasLowerCase>  (525) 
rac-4fphe

>  <LatestVersion>  (525) 
0.0

>  <createdAt>  (525) 
2026-02-13T09:56:35.526Z

>  <updatedAt>  (525) 
2026-02-13T09:56:35.526Z

>  <NumRotatableBonds>  (525) 
4

>  <is_N_methyl>  (525) 
False

>  <is_a_methyl>  (525) 
False

>  <is_alpha_aa>  (525) 
True

>  <is_beta_aa>  (525) 
False

>  <is_S100_aa>  (525) 
False

>  <Murcko_SMILES>  (525) 
c1ccccc1

$$$$

     RDKit          2D

 14 14  0  0  0  0  0  0  0  0999 V2000
    6.0000    0.0000    0.0000 O   0  0  0  0  0  0  0  0  0  0  0  0
    5.2500   -1.2990    0.0000 C   0  0  0  0  0  0  0  0  0  0  0  0
    3.7500   -1.2990    0.0000 C   0  0  0  0  0  0  0  0  0  0  0  0
    3.0000    0.0000    0.0000 C   0  0  0  0  0  0  0  0  0  0  0  0
    1.5000    0.0000    0.0000 C   0  0  0  0  0  0  0  0  0  0  0  0
    0.7500   -1.2990    0.0000 C   0  0  0  0  0  0  0  0  0  0  0  0
   -0.7500   -1.2990    0.0000 C   0  0  0  0  0  0  0  0  0  0  0  0
   -1.5000    0.0000    0.0000 C   0  0  0  0  0  0  0  0  0  0  0  0
   -0.7500    1.2990    0.0000 C   0  0  0  0  0  0  0  0  0  0  0  0
    0.7500    1.2990    0.0000 C   0  0  0  0  0  0  0  0  0  0  0  0
    1.5000    2.5981    0.0000 O   0  0  0  0  0  0  0  0  0  0  0  0
    3.0000   -2.5981    0.0000 N   0  0  0  0  0  0  0  0  0  0  0  0
    3.7500   -3.8971    0.0000 R   0  0  0  0  0  1  0  0  0  1  0  0
    6.0000   -2.5981    0.0000 R   0  0  0  0  0  1  0  0  0  2  0  0
  1  2  2  0
  2  3  1  0
  3  4  1  6
  4  5  1  0
  5  6  2  0
  6  7  1  0
  7  8  2  0
  8  9  1  0
  9 10  2  0
 10 11  1  0
  3 12  1  0
 12 13  1  0
  2 14  1  0
 10  5  1  0
M  END
>  <id>  (526) 
a5507b5e-0fc7-49c9-bb83-42946dbf2736

>  <Version>  (526) 
0

>  <Alias>  (526) 
D-2HOPhe

>  <Type>  (526) 
amino_acid

>  <Smiles>  (526) 
O=C([C@@H](Cc1ccccc1O)N[*:1])[*:2]

>  <ProtectedSmiles>  (526) 
O=C(N[C@H](Cc1ccccc1O)C(=O)O)OCC1c2ccccc2-c2ccccc21

>  <CAS>  (526) 
1217754-89-6

>  <User>  (526) 
angelica.l

>  <StereoComment>  (526) 
as drawn

>  <Name>  (526) 
Fmoc-2-hydroxy-d-phenylalanine

>  <Code>  (526) 
D-2HOPhe

>  <AliasLowerCase>  (526) 
d-2hophe

>  <LatestVersion>  (526) 
0.0

>  <createdAt>  (526) 
2026-01-14T11:36:06.429Z

>  <updatedAt>  (526) 
2026-01-14T11:36:06.429Z

>  <NumRotatableBonds>  (526) 
4

>  <is_N_methyl>  (526) 
False

>  <is_a_methyl>  (526) 
False

>  <is_alpha_aa>  (526) 
True

>  <is_beta_aa>  (526) 
False

>  <is_S100_aa>  (526) 
False

>  <Murcko_SMILES>  (526) 
c1ccccc1

$$$$

     RDKit          2D

 10 10  0  0  0  0  0  0  0  0999 V2000
    5.3660    0.0000    0.0000 O   0  0  0  0  0  0  0  0  0  0  0  0
    4.6160   -1.2990    0.0000 C   0  0  0  0  0  0  0  0  0  0  0  0
    3.1160   -1.2990    0.0000 C   0  0  0  0  0  0  0  0  0  0  0  0
    2.3660    0.0000    0.0000 C   0  0  0  0  0  0  0  0  0  0  0  0
    0.8660    0.0000    0.0000 C   0  0  0  0  0  0  0  0  0  0  0  0
   -0.4330    0.7500    0.0000 C   0  0  0  0  0  0  0  0  0  0  0  0
   -0.4330   -0.7500    0.0000 C   0  0  0  0  0  0  0  0  0  0  0  0
    2.3660   -2.5981    0.0000 N   0  0  0  0  0  0  0  0  0  0  0  0
    3.1160   -3.8971    0.0000 R   0  0  0  0  0  1  0  0  0  1  0  0
    5.3660   -2.5981    0.0000 R   0  0  0  0  0  1  0  0  0  2  0  0
  1  2  2  0
  2  3  1  0
  3  4  1  6
  4  5  1  0
  5  6  1  0
  6  7  1  0
  3  8  1  0
  8  9  1  0
  2 10  1  0
  7  5  1  0
M  END
>  <id>  (527) 
ec2d7296-5dd3-42c0-8d5e-7db3646a0dd6

>  <Version>  (527) 
0

>  <Alias>  (527) 
D-cPropAla

>  <Type>  (527) 
amino_acid

>  <Smiles>  (527) 
O=C([C@@H](CC1CC1)N[*:1])[*:2]

>  <ProtectedSmiles>  (527) 
O=C(N[C@H](CC1CC1)C(=O)O)OCC1c2ccccc2-c2ccccc21

>  <CAS>  (527) 
170642-29-2

>  <User>  (527) 
clement.gensous@orbismedicines.com

>  <StereoComment>  (527) 
as drawn

>  <Name>  (527) 
D-cPropAla

>  <Code>  (527) 
D-cPropAla

>  <AliasLowerCase>  (527) 
d-cpropala

>  <LatestVersion>  (527) 
0.0

>  <createdAt>  (527) 
2026-01-15T09:28:41.411Z

>  <updatedAt>  (527) 
2026-01-15T09:28:41.411Z

>  <NumRotatableBonds>  (527) 
4

>  <is_N_methyl>  (527) 
False

>  <is_a_methyl>  (527) 
False

>  <is_alpha_aa>  (527) 
True

>  <is_beta_aa>  (527) 
False

>  <is_S100_aa>  (527) 
False

>  <Murcko_SMILES>  (527) 
C1CC1

$$$$

     RDKit          2D

 15 16  0  0  0  0  0  0  0  0999 V2000
    3.7500    1.2990    0.0000 O   0  0  0  0  0  0  0  0  0  0  0  0
    3.0000    0.0000    0.0000 C   0  0  0  0  0  0  0  0  0  0  0  0
    1.5000    0.0000    0.0000 C   0  0  0  0  0  0  0  0  0  0  0  0
    0.7500   -1.2990    0.0000 C   0  0  0  0  0  0  0  0  0  0  0  0
   -0.7500   -1.2990    0.0000 C   0  0  0  0  0  0  0  0  0  0  0  0
   -1.5000    0.0000    0.0000 C   0  0  0  0  0  0  0  0  0  0  0  0
   -0.7500    1.2990    0.0000 C   0  0  0  0  0  0  0  0  0  0  0  0
   -1.5000    2.5981    0.0000 C   0  0  0  0  0  0  0  0  0  0  0  0
   -0.7500    3.8971    0.0000 C   0  0  0  0  0  0  0  0  0  0  0  0
   -1.5000    5.1962    0.0000 N   0  0  0  0  0  0  0  0  0  0  0  0
   -0.7500    6.4952    0.0000 R   0  0  0  0  0  1  0  0  0  1  0  0
    0.7500    3.8971    0.0000 C   0  0  0  0  0  0  0  0  0  0  0  0
    1.5000    2.5981    0.0000 C   0  0  0  0  0  0  0  0  0  0  0  0
    0.7500    1.2990    0.0000 C   0  0  0  0  0  0  0  0  0  0  0  0
    3.7500   -1.2990    0.0000 R   0  0  0  0  0  1  0  0  0  2  0  0
  1  2  2  0
  2  3  1  0
  3  4  1  0
  4  5  1  0
  5  6  1  0
  6  7  1  0
  7  8  2  0
  8  9  1  0
  9 10  1  0
 10 11  1  0
  9 12  2  0
 12 13  1  0
 13 14  2  0
  2 15  1  0
 14  3  1  0
 14  7  1  0
M  END
>  <id>  (528) 
f49e6af4-f1d7-4c54-85b3-626227bf7d9e

>  <Version>  (528) 
0

>  <Alias>  (528) 
6N-THN

>  <Type>  (528) 
amino_acid

>  <Smiles>  (528) 
O=C(C1CCCc2cc(N[*:1])ccc21)[*:2]

>  <ProtectedSmiles>  (528) 
O=C(Nc1ccc2c(c1)CCCC2C(=O)O)OCC1c2ccccc2-c2ccccc21

>  <CAS>  (528) 
2580216-99-3

>  <User>  (528) 
angelica.l

>  <StereoComment>  (528) 
as drawn

>  <Name>  (528) 
6-({[(9H-fluoren-9-yl)methoxy]carbonyl}amino)-1,2,3,4-tetrahydronaphthalene-1-carboxylic acid

>  <Code>  (528) 
6N-THN

>  <AliasLowerCase>  (528) 
6n-thn

>  <LatestVersion>  (528) 
0.0

>  <createdAt>  (528) 
2026-01-14T11:34:08.761Z

>  <updatedAt>  (528) 
2026-01-14T11:34:08.761Z

>  <NumRotatableBonds>  (528) 
2

>  <is_N_methyl>  (528) 
False

>  <is_a_methyl>  (528) 
False

>  <is_alpha_aa>  (528) 
False

>  <is_beta_aa>  (528) 
False

>  <is_S100_aa>  (528) 
False

>  <Murcko_SMILES>  (528) 
c1ccc2c(c1)CCCC2

$$$$

     RDKit          2D

 14 14  0  0  0  0  0  0  0  0999 V2000
    1.5000   -2.5981    0.0000 O   0  0  0  0  0  0  0  0  0  0  0  0
    3.0000   -2.5981    0.0000 C   0  0  0  0  0  0  0  0  0  0  0  0
    3.7500   -1.2990    0.0000 C   0  0  0  0  0  0  0  0  0  0  0  0
    5.2500   -1.2990    0.0000 C   0  0  0  0  0  0  0  0  0  0  0  0
    6.0000   -2.5981    0.0000 N   0  0  0  0  0  0  0  0  0  0  0  0
    7.5000   -2.5981    0.0000 R   0  0  0  0  0  1  0  0  0  1  0  0
    3.0000    0.0000    0.0000 C   0  0  0  0  0  0  0  0  0  0  0  0
    1.5000    0.0000    0.0000 C   0  0  0  0  0  0  0  0  0  0  0  0
    0.7500   -1.2990    0.0000 C   0  0  0  0  0  0  0  0  0  0  0  0
   -0.7500   -1.2990    0.0000 C   0  0  0  0  0  0  0  0  0  0  0  0
   -1.5000    0.0000    0.0000 C   0  0  0  0  0  0  0  0  0  0  0  0
   -0.7500    1.2990    0.0000 C   0  0  0  0  0  0  0  0  0  0  0  0
    0.7500    1.2990    0.0000 C   0  0  0  0  0  0  0  0  0  0  0  0
    3.7500   -3.8971    0.0000 R   0  0  0  0  0  1  0  0  0  2  0  0
  1  2  2  0
  2  3  1  0
  3  4  1  6
  4  5  1  0
  5  6  1  0
  3  7  1  0
  7  8  1  0
  8  9  2  0
  9 10  1  0
 10 11  2  0
 11 12  1  0
 12 13  2  0
  2 14  1  0
 13  8  1  0
M  END
>  <id>  (529) 
627c0dbd-ed41-4492-b71b-772f6283ea6b

>  <Version>  (529) 
0

>  <Alias>  (529) 
2Phe-B-Ala

>  <Type>  (529) 
amino_acid

>  <Smiles>  (529) 
O=C([C@@H](CN[*:1])Cc1ccccc1)[*:2]

>  <ProtectedSmiles>  (529) 
O=C(NC[C@@H](Cc1ccccc1)C(=O)O)OCC1c2ccccc2-c2ccccc21

>  <CAS>  (529) 
828254-16-6

>  <User>  (529) 
angelica.l

>  <StereoComment>  (529) 
as drawn

>  <Name>  (529) 
 (R)-3-((((9H-Fluoren-9-yl)methoxy)carbonyl)amino)-2-benzylpropanoic acid

>  <Code>  (529) 
2Phe-B-Ala

>  <AliasLowerCase>  (529) 
2phe-b-ala

>  <LatestVersion>  (529) 
0.0

>  <createdAt>  (529) 
2026-01-14T11:33:51.620Z

>  <updatedAt>  (529) 
2026-01-14T11:33:51.620Z

>  <NumRotatableBonds>  (529) 
5

>  <is_N_methyl>  (529) 
False

>  <is_a_methyl>  (529) 
False

>  <is_alpha_aa>  (529) 
False

>  <is_beta_aa>  (529) 
True

>  <is_S100_aa>  (529) 
False

>  <Murcko_SMILES>  (529) 
c1ccccc1

$$$$

     RDKit          2D

 11 11  0  0  0  0  0  0  0  0999 V2000
    3.0000    0.0000    0.0000 O   0  0  0  0  0  0  0  0  0  0  0  0
    1.5000    0.0000    0.0000 C   0  0  0  0  0  0  0  0  0  0  0  0
    0.7500   -1.2990    0.0000 C   0  0  0  0  0  0  0  0  0  0  0  0
   -0.7500   -1.2990    0.0000 N   0  0  0  0  0  0  0  0  0  0  0  0
   -1.5000   -2.5981    0.0000 R   0  0  0  0  0  1  0  0  0  1  0  0
   -1.5000    0.0000    0.0000 C   0  0  0  0  0  0  0  0  0  0  0  0
   -3.0000    0.0000    0.0000 C   0  0  0  0  0  0  0  0  0  0  0  0
   -3.7500   -1.2990    0.0000 O   0  0  0  0  0  0  0  0  0  0  0  0
   -3.7500    1.2990    0.0000 R   0  0  0  0  0  1  0  0  0  2  0  0
   -0.7500    1.2990    0.0000 C   0  0  0  0  0  0  0  0  0  0  0  0
    0.7500    1.2990    0.0000 N   0  0  0  0  0  0  0  0  0  0  0  0
  1  2  2  0
  2  3  1  0
  3  4  1  0
  4  5  1  0
  4  6  1  0
  6  7  1  0
  7  8  2  0
  7  9  1  0
  6 10  1  0
 10 11  1  0
 11  2  1  0
M  END
>  <id>  (530) 
cc9f78ea-4c9a-4f03-80a1-ad04e59b742e

>  <Version>  (530) 
0

>  <Alias>  (530) 
rac5OxoPiperaz2CA

>  <Type>  (530) 
amino_acid

>  <Smiles>  (530) 
O=C1CN([*:1])C(C(=O)[*:2])CN1

>  <ProtectedSmiles>  (530) 
O=C1CN(C(=O)OCC2c3ccccc3-c3ccccc32)C(C(=O)O)CN1

>  <CAS>  (530) 
1701778-09-7

>  <User>  (530) 
angelica.l

>  <StereoComment>  (530) 
as drawn

>  <Name>  (530) 
1-{[(9H-fluoren-9-yl)methoxy]carbonyl}-5-oxopiperazine-2-carboxylic acid

>  <Code>  (530) 
rac5OxoPiperaz2CA

>  <AliasLowerCase>  (530) 
rac5oxopiperaz2ca

>  <LatestVersion>  (530) 
0.0

>  <createdAt>  (530) 
2026-01-14T11:35:25.172Z

>  <updatedAt>  (530) 
2026-01-14T11:35:25.172Z

>  <NumRotatableBonds>  (530) 
1

>  <is_N_methyl>  (530) 
False

>  <is_a_methyl>  (530) 
False

>  <is_alpha_aa>  (530) 
True

>  <is_beta_aa>  (530) 
False

>  <is_S100_aa>  (530) 
False

>  <Murcko_SMILES>  (530) 
O=C1CNCCN1

$$$$

     RDKit          2D

 11 11  0  0  0  0  0  0  0  0999 V2000
    3.0000   -2.5981    0.0000 O   0  0  0  0  0  0  0  0  0  0  0  0
    3.7500   -1.2990    0.0000 C   0  0  0  0  0  0  0  0  0  0  0  0
    3.0000    0.0000    0.0000 C   0  0  0  0  0  0  0  0  0  0  0  0
    1.5000    0.0000    0.0000 C   0  0  0  0  0  0  0  0  0  0  0  0
    0.7500   -1.2990    0.0000 C   0  0  0  0  0  0  0  0  0  0  0  0
   -0.7500   -1.2990    0.0000 C   0  0  0  0  0  0  0  0  0  0  0  0
   -1.5000    0.0000    0.0000 N   0  0  0  0  0  0  0  0  0  0  0  0
   -3.0000    0.0000    0.0000 R   0  0  0  0  0  1  0  0  0  1  0  0
   -0.7500    1.2990    0.0000 C   0  0  0  0  0  0  0  0  0  0  0  0
    0.7500    1.2990    0.0000 C   0  0  0  0  0  0  0  0  0  0  0  0
    5.2500   -1.2990    0.0000 R   0  0  0  0  0  1  0  0  0  2  0  0
  1  2  2  0
  2  3  1  0
  3  4  1  0
  4  5  1  0
  5  6  1  0
  6  7  1  0
  7  8  1  0
  7  9  1  0
  9 10  1  0
  2 11  1  0
 10  4  1  0
M  END
>  <id>  (531) 
6ef24bcd-d8c1-450a-8a22-775ced3abb68

>  <Version>  (531) 
0

>  <Alias>  (531) 
4CMePip

>  <Type>  (531) 
amino_acid

>  <Smiles>  (531) 
O=C(CC1CCN([*:1])CC1)[*:2]

>  <ProtectedSmiles>  (531) 
O=C(O)CC1CCN(C(=O)OCC2c3ccccc3-c3ccccc32)CC1

>  <CAS>  (531) 
180181-05-9

>  <User>  (531) 
sevan.h

>  <StereoComment>  (531) 
as drawn

>  <Name>  (531) 
Fmoc-4-carboxymethyl-piperidineacetic acid

>  <Code>  (531) 
4CMePip

>  <AliasLowerCase>  (531) 
4cmepip

>  <LatestVersion>  (531) 
0.0

>  <createdAt>  (531) 
2026-01-14T12:16:29.693Z

>  <updatedAt>  (531) 
2026-01-14T12:16:29.693Z

>  <NumRotatableBonds>  (531) 
2

>  <is_N_methyl>  (531) 
False

>  <is_a_methyl>  (531) 
False

>  <is_alpha_aa>  (531) 
False

>  <is_beta_aa>  (531) 
False

>  <is_S100_aa>  (531) 
False

>  <Murcko_SMILES>  (531) 
C1CCNCC1

$$$$

     RDKit          2D

 13 13  0  0  0  0  0  0  0  0999 V2000
    3.0000   -2.5981    0.0000 O   0  0  0  0  0  0  0  0  0  0  0  0
    3.7500   -1.2990    0.0000 C   0  0  0  0  0  0  0  0  0  0  0  0
    3.0000    0.0000    0.0000 C   0  0  0  0  0  0  0  0  0  0  0  0
    1.5000    0.0000    0.0000 C   0  0  0  0  0  0  0  0  0  0  0  0
    0.7500   -1.2990    0.0000 C   0  0  0  0  0  0  0  0  0  0  0  0
   -0.7500   -1.2990    0.0000 C   0  0  0  0  0  0  0  0  0  0  0  0
   -1.5000    0.0000    0.0000 C   0  0  0  0  0  0  0  0  0  0  0  0
   -3.0000    0.0000    0.0000 C   0  0  0  0  0  0  0  0  0  0  0  0
   -3.7500    1.2990    0.0000 N   0  0  0  0  0  0  0  0  0  0  0  0
   -5.2500    1.2990    0.0000 R   0  0  0  0  0  1  0  0  0  1  0  0
   -0.7500    1.2990    0.0000 C   0  0  0  0  0  0  0  0  0  0  0  0
    0.7500    1.2990    0.0000 C   0  0  0  0  0  0  0  0  0  0  0  0
    5.2500   -1.2990    0.0000 R   0  0  0  0  0  1  0  0  0  2  0  0
  1  2  2  0
  2  3  1  0
  3  4  1  0
  4  5  2  0
  5  6  1  0
  6  7  2  0
  7  8  1  0
  8  9  1  0
  9 10  1  0
  7 11  1  0
 11 12  2  0
  2 13  1  0
 12  4  1  0
M  END
>  <id>  (532) 
066d55ea-ef7d-427e-b821-5321ec0659a1

>  <Version>  (532) 
0

>  <Alias>  (532) 
4AMPAc

>  <Type>  (532) 
amino_acid

>  <Smiles>  (532) 
O=C(Cc1ccc(CN[*:1])cc1)[*:2]

>  <ProtectedSmiles>  (532) 
O=C(O)Cc1ccc(CNC(=O)OCC2c3ccccc3-c3ccccc32)cc1

>  <CAS>  (532) 
176504-01-1

>  <User>  (532) 
marie.g

>  <StereoComment>  (532) 
as drawn

>  <Name>  (532) 
Fmoc-4-aminomethyl-phenylacetic acid

>  <Code>  (532) 
4AMPAc

>  <AliasLowerCase>  (532) 
4ampac

>  <LatestVersion>  (532) 
0.0

>  <createdAt>  (532) 
2026-01-14T11:33:47.150Z

>  <updatedAt>  (532) 
2026-01-14T11:33:47.150Z

>  <NumRotatableBonds>  (532) 
4

>  <is_N_methyl>  (532) 
False

>  <is_a_methyl>  (532) 
False

>  <is_alpha_aa>  (532) 
False

>  <is_beta_aa>  (532) 
False

>  <is_S100_aa>  (532) 
False

>  <Murcko_SMILES>  (532) 
c1ccccc1

$$$$

     RDKit          2D

 16 17  0  0  0  0  0  0  0  0999 V2000
    1.7725   -8.3730    0.0000 O   0  0  0  0  0  0  0  0  0  0  0  0
    0.4022   -7.7629    0.0000 C   0  0  0  0  0  0  0  0  0  0  0  0
    0.2454   -6.2711    0.0000 C   0  0  0  0  0  0  0  0  0  0  0  0
    1.3601   -5.2674    0.0000 C   0  0  0  0  0  0  0  0  0  0  0  0
    0.7500   -3.8971    0.0000 C   0  0  0  0  0  0  0  0  0  0  0  0
    1.5000   -2.5981    0.0000 C   0  0  0  0  0  0  0  0  0  0  0  0
    0.7500   -1.2990    0.0000 C   0  0  0  0  0  0  0  0  0  0  0  0
    1.5000    0.0000    0.0000 C   0  0  0  0  0  0  0  0  0  0  0  0
    0.7500    1.2990    0.0000 C   0  0  0  0  0  0  0  0  0  0  0  0
   -0.7500    1.2990    0.0000 C   0  0  0  0  0  0  0  0  0  0  0  0
   -1.5000    0.0000    0.0000 C   0  0  0  0  0  0  0  0  0  0  0  0
   -0.7500   -1.2990    0.0000 C   0  0  0  0  0  0  0  0  0  0  0  0
   -0.7418   -4.0539    0.0000 C   0  0  0  0  0  0  0  0  0  0  0  0
   -1.0537   -5.5211    0.0000 N   0  0  0  0  0  0  0  0  0  0  0  0
   -2.4240   -6.1312    0.0000 R   0  0  0  0  0  1  0  0  0  1  0  0
   -0.8113   -8.6446    0.0000 R   0  0  0  0  0  1  0  0  0  2  0  0
  1  2  2  0
  3  2  1  1
  3  4  1  0
  4  5  1  0
  5  6  1  6
  6  7  1  0
  7  8  2  0
  8  9  1  0
  9 10  2  0
 10 11  1  0
 11 12  2  0
  5 13  1  0
 13 14  1  0
 14 15  1  0
  2 16  1  0
 14  3  1  0
 12  7  1  0
M  END
>  <id>  (533) 
06c907c9-387e-4407-8dde-c40c9b5b2901

>  <Version>  (533) 
0

>  <Alias>  (533) 
(4R-Bn)Pro

>  <Type>  (533) 
amino_acid

>  <Smiles>  (533) 
O=C([C@@H]1C[C@@H](Cc2ccccc2)CN1[*:1])[*:2]

>  <ProtectedSmiles>  (533) 
O=C(O)[C@@H]1C[C@@H](Cc2ccccc2)CN1C(=O)OCC1c2ccccc2-c2ccccc21

>  <CAS>  (533) 
1158891-05-4

>  <User>  (533) 
marie.g

>  <StereoComment>  (533) 
as drawn

>  <Name>  (533) 
(4R-Bn)Pro

>  <Code>  (533) 
(4R-Bn)Pro

>  <AliasLowerCase>  (533) 
(4r-bn)pro

>  <LatestVersion>  (533) 
0.0

>  <createdAt>  (533) 
2026-01-15T09:28:33.542Z

>  <updatedAt>  (533) 
2026-01-15T09:28:33.542Z

>  <NumRotatableBonds>  (533) 
3

>  <is_N_methyl>  (533) 
False

>  <is_a_methyl>  (533) 
False

>  <is_alpha_aa>  (533) 
True

>  <is_beta_aa>  (533) 
False

>  <is_S100_aa>  (533) 
False

>  <Murcko_SMILES>  (533) 
c1ccc(C[C@@H]2CCNC2)cc1

$$$$

     RDKit          2D

 14 14  0  0  0  0  0  0  0  0999 V2000
    6.0000    0.0000    0.0000 O   0  0  0  0  0  0  0  0  0  0  0  0
    5.2500   -1.2990    0.0000 C   0  0  0  0  0  0  0  0  0  0  0  0
    3.7500   -1.2990    0.0000 C   0  0  0  0  0  0  0  0  0  0  0  0
    3.0000    0.0000    0.0000 C   0  0  0  0  0  0  0  0  0  0  0  0
    1.5000    0.0000    0.0000 C   0  0  0  0  0  0  0  0  0  0  0  0
    0.7500   -1.2990    0.0000 C   0  0  0  0  0  0  0  0  0  0  0  0
   -0.7500   -1.2990    0.0000 C   0  0  0  0  0  0  0  0  0  0  0  0
   -1.5000    0.0000    0.0000 C   0  0  0  0  0  0  0  0  0  0  0  0
   -3.0000    0.0000    0.0000 O   0  0  0  0  0  0  0  0  0  0  0  0
   -0.7500    1.2990    0.0000 C   0  0  0  0  0  0  0  0  0  0  0  0
    0.7500    1.2990    0.0000 C   0  0  0  0  0  0  0  0  0  0  0  0
    3.0000   -2.5981    0.0000 N   0  0  0  0  0  0  0  0  0  0  0  0
    3.7500   -3.8971    0.0000 R   0  0  0  0  0  1  0  0  0  1  0  0
    6.0000   -2.5981    0.0000 R   0  0  0  0  0  1  0  0  0  2  0  0
  1  2  2  0
  2  3  1  0
  3  4  1  6
  4  5  1  0
  5  6  2  0
  6  7  1  0
  7  8  2  0
  8  9  1  0
  8 10  1  0
 10 11  2  0
  3 12  1  0
 12 13  1  0
  2 14  1  0
 11  5  1  0
M  END
>  <id>  (534) 
ff9029a1-971c-456f-b5e3-7c1103451410

>  <Version>  (534) 
0

>  <Alias>  (534) 
D-Tyr

>  <Type>  (534) 
amino_acid

>  <Smiles>  (534) 
O=C([C@@H](Cc1ccc(O)cc1)N[*:1])[*:2]

>  <ProtectedSmiles>  (534) 
CC(C)(C)Oc1ccc(C[C@@H](NC(=O)OCC2c3ccccc3-c3ccccc32)C(=O)O)cc1

>  <CAS>  (534) 
118488-18-9

>  <User>  (534) 
sevan.h

>  <StereoComment>  (534) 
as drawn

>  <Name>  (534) 
Fmoc-D-Tyr(tBu)-OH

>  <Code>  (534) 
D-Tyr

>  <AliasLowerCase>  (534) 
d-tyr

>  <LatestVersion>  (534) 
0.0

>  <createdAt>  (534) 
2026-01-14T12:17:14.293Z

>  <updatedAt>  (534) 
2026-01-14T12:17:14.293Z

>  <NumRotatableBonds>  (534) 
4

>  <is_N_methyl>  (534) 
False

>  <is_a_methyl>  (534) 
False

>  <is_alpha_aa>  (534) 
True

>  <is_beta_aa>  (534) 
False

>  <is_S100_aa>  (534) 
False

>  <Murcko_SMILES>  (534) 
c1ccccc1

$$$$

     RDKit          2D

 10  9  0  0  0  0  0  0  0  0999 V2000
    6.4952    0.7500    0.0000 N   0  0  0  0  0  0  0  0  0  0  0  0
    5.1962   -0.0000    0.0000 C   0  0  0  0  0  0  0  0  0  0  0  0
    5.1962   -1.5000    0.0000 O   0  0  0  0  0  0  0  0  0  0  0  0
    3.8971    0.7500    0.0000 C   0  0  0  0  0  0  0  0  0  0  0  0
    2.5981   -0.0000    0.0000 C   0  0  0  0  0  0  0  0  0  0  0  0
    1.2990    0.7500    0.0000 N   0  0  0  0  0  0  0  0  0  0  0  0
    0.0000    0.0000    0.0000 R   0  0  0  0  0  1  0  0  0  1  0  0
    2.5981   -1.5000    0.0000 C   0  0  0  0  0  0  0  0  0  0  0  0
    1.2990   -2.2500    0.0000 O   0  0  0  0  0  0  0  0  0  0  0  0
    3.8971   -2.2500    0.0000 R   0  0  0  0  0  1  0  0  0  2  0  0
  1  2  1  0
  2  3  2  0
  2  4  1  0
  5  4  1  6
  5  6  1  0
  6  7  1  0
  5  8  1  0
  8  9  2  0
  8 10  1  0
M  END
>  <id>  (535) 
0c9d0cea-5d6a-414a-95d7-a66bdd00d19d

>  <Version>  (535) 
0

>  <Alias>  (535) 
D-Asn

>  <Type>  (535) 
amino_acid

>  <Smiles>  (535) 
NC(=O)C[C@@H](N[*:1])C(=O)[*:2]

>  <ProtectedSmiles>  (535) 
O=C(C[C@@H](NC(=O)OCC1c2ccccc2-c2ccccc21)C(=O)O)NC(c1ccccc1)(c1ccccc1)c1ccccc1

>  <CAS>  (535) 
180570-71-2

>  <User>  (535) 
sevan.h

>  <StereoComment>  (535) 
as drawn

>  <Name>  (535) 
Fmoc-D-Asn(Trt)-OH

>  <Code>  (535) 
D-Asn

>  <AliasLowerCase>  (535) 
d-asn

>  <LatestVersion>  (535) 
0.0

>  <createdAt>  (535) 
2026-01-14T12:16:38.707Z

>  <updatedAt>  (535) 
2026-01-14T12:16:38.707Z

>  <NumRotatableBonds>  (535) 
4

>  <is_N_methyl>  (535) 
False

>  <is_a_methyl>  (535) 
False

>  <is_alpha_aa>  (535) 
True

>  <is_beta_aa>  (535) 
False

>  <is_S100_aa>  (535) 
False

>  <Murcko_SMILES>  (535) 


$$$$

     RDKit          2D

 13 12  0  0  0  0  0  0  0  0999 V2000
   10.3923   -0.0000    0.0000 N   0  0  0  0  0  0  0  0  0  0  0  0
    9.0933    0.7500    0.0000 C   0  0  0  0  0  0  0  0  0  0  0  0
    9.0933    2.2500    0.0000 O   0  0  0  0  0  0  0  0  0  0  0  0
    7.7942   -0.0000    0.0000 N   0  0  0  0  0  0  0  0  0  0  0  0
    6.4952    0.7500    0.0000 C   0  0  0  0  0  0  0  0  0  0  0  0
    5.1962   -0.0000    0.0000 C   0  0  0  0  0  0  0  0  0  0  0  0
    3.8971    0.7500    0.0000 C   0  0  0  0  0  0  0  0  0  0  0  0
    2.5981   -0.0000    0.0000 C   0  0  0  0  0  0  0  0  0  0  0  0
    1.2990    0.7500    0.0000 N   0  0  0  0  0  0  0  0  0  0  0  0
    0.0000    0.0000    0.0000 R   0  0  0  0  0  1  0  0  0  1  0  0
    2.5981   -1.5000    0.0000 C   0  0  0  0  0  0  0  0  0  0  0  0
    1.2990   -2.2500    0.0000 O   0  0  0  0  0  0  0  0  0  0  0  0
    3.8971   -2.2500    0.0000 R   0  0  0  0  0  1  0  0  0  2  0  0
  1  2  1  0
  2  3  2  0
  2  4  1  0
  4  5  1  0
  5  6  1  0
  6  7  1  0
  8  7  1  6
  8  9  1  0
  9 10  1  0
  8 11  1  0
 11 12  2  0
 11 13  1  0
M  END
>  <id>  (536) 
3c19b62f-dc8f-4f9c-836c-4c3afcffd234

>  <Version>  (536) 
0

>  <Alias>  (536) 
D-Cit

>  <Type>  (536) 
amino_acid

>  <Smiles>  (536) 
NC(=O)NCCC[C@@H](N[*:1])C(=O)[*:2]

>  <ProtectedSmiles>  (536) 
NC(=O)NCCC[C@@H](NC(=O)OCC1c2ccccc2-c2ccccc21)C(=O)O

>  <CAS>  (536) 
200344-33-8

>  <User>  (536) 
clement.gensous@orbismedicines.com

>  <StereoComment>  (536) 
as drawn

>  <Name>  (536) 
D-Cit

>  <Code>  (536) 
D-Cit

>  <AliasLowerCase>  (536) 
d-cit

>  <LatestVersion>  (536) 
0.0

>  <createdAt>  (536) 
2026-01-15T09:28:38.475Z

>  <updatedAt>  (536) 
2026-01-15T09:28:38.475Z

>  <NumRotatableBonds>  (536) 
6

>  <is_N_methyl>  (536) 
False

>  <is_a_methyl>  (536) 
False

>  <is_alpha_aa>  (536) 
True

>  <is_beta_aa>  (536) 
False

>  <is_S100_aa>  (536) 
False

>  <Murcko_SMILES>  (536) 


$$$$

     RDKit          2D

 11 11  0  0  0  0  0  0  0  0999 V2000
    2.3886    2.4414    0.0000 O   0  0  0  0  0  0  0  0  0  0  0  0
    2.6491    0.9642    0.0000 C   0  0  0  0  0  0  0  0  0  0  0  0
    1.5000    0.0000    0.0000 C   0  0  0  0  0  0  0  0  0  0  0  0
    2.6491   -0.9642    0.0000 O   0  0  0  0  0  0  0  0  0  0  0  0
    0.7500   -1.2990    0.0000 C   0  0  0  0  0  0  0  0  0  0  0  0
   -0.7500   -1.2990    0.0000 C   0  0  0  0  0  0  0  0  0  0  0  0
   -1.5000    0.0000    0.0000 C   0  0  0  0  0  0  0  0  0  0  0  0
   -0.7500    1.2990    0.0000 N   0  0  0  0  0  0  0  0  0  0  0  0
   -1.5000    2.5981    0.0000 R   0  0  0  0  0  1  0  0  0  1  0  0
    0.7500    1.2990    0.0000 C   0  0  0  0  0  0  0  0  0  0  0  0
    4.0586    0.4512    0.0000 R   0  0  0  0  0  1  0  0  0  2  0  0
  1  2  2  0
  2  3  1  0
  3  4  1  0
  3  5  1  0
  5  6  1  0
  6  7  1  0
  7  8  1  0
  8  9  1  0
  8 10  1  0
  2 11  1  0
 10  3  1  0
M  END
>  <id>  (537) 
c2a50e7e-59e1-4f84-8fc8-754f5270c683

>  <Version>  (537) 
0

>  <Alias>  (537) 
rac3HOPip3CA

>  <Type>  (537) 
amino_acid

>  <Smiles>  (537) 
O=C(C1(O)CCCN([*:1])C1)[*:2]

>  <ProtectedSmiles>  (537) 
O=C(OCC1c2ccccc2-c2ccccc21)N1CCCC(O)(C(=O)O)C1

>  <CAS>  (537) 
1849869-52-8

>  <User>  (537) 
angelica.l

>  <StereoComment>  (537) 
as drawn

>  <Name>  (537) 
1-{[(9H-fluoren-9-yl)methoxy]carbonyl}-3-hydroxypiperidine-3-carboxylic acid

>  <Code>  (537) 
rac3HOPip3CA

>  <AliasLowerCase>  (537) 
rac3hopip3ca

>  <LatestVersion>  (537) 
0.0

>  <createdAt>  (537) 
2026-01-14T11:35:27.152Z

>  <updatedAt>  (537) 
2026-01-14T11:35:27.152Z

>  <NumRotatableBonds>  (537) 
1

>  <is_N_methyl>  (537) 
False

>  <is_a_methyl>  (537) 
False

>  <is_alpha_aa>  (537) 
False

>  <is_beta_aa>  (537) 
True

>  <is_S100_aa>  (537) 
False

>  <Murcko_SMILES>  (537) 
C1CCNCC1

$$$$

     RDKit          2D

 12 12  0  0  0  0  0  0  0  0999 V2000
    3.0000    0.0000    0.0000 C   0  0  0  0  0  0  0  0  0  0  0  0
    1.5000    0.0000    0.0000 N   0  0  0  0  0  0  0  0  0  0  0  0
    0.7500   -1.2990    0.0000 C   0  0  0  0  0  0  0  0  0  0  0  0
   -0.7500   -1.2990    0.0000 C   0  0  0  0  0  0  0  0  0  0  0  0
   -1.5000   -2.5981    0.0000 C   0  0  0  0  0  0  0  0  0  0  0  0
   -0.7500   -3.8971    0.0000 O   0  0  0  0  0  0  0  0  0  0  0  0
   -3.0000   -2.5981    0.0000 R   0  0  0  0  0  1  0  0  0  2  0  0
   -1.5000    0.0000    0.0000 N   0  0  0  0  0  0  0  0  0  0  0  0
   -3.0000    0.0000    0.0000 R   0  0  0  0  0  1  0  0  0  1  0  0
   -0.7500    1.2990    0.0000 C   0  0  0  0  0  0  0  0  0  0  0  0
    0.7500    1.2990    0.0000 C   0  0  0  0  0  0  0  0  0  0  0  0
    1.5000    2.5981    0.0000 O   0  0  0  0  0  0  0  0  0  0  0  0
  1  2  1  0
  2  3  1  0
  3  4  1  0
  4  5  1  0
  5  6  2  0
  5  7  1  0
  4  8  1  0
  8  9  1  0
  8 10  1  0
 10 11  1  0
 11 12  2  0
 11  2  1  0
M  END
>  <id>  (538) 
b47e0bd1-b3b5-4f82-976c-91facd028460

>  <Version>  (538) 
0

>  <Alias>  (538) 
MePipzCA

>  <Type>  (538) 
amino_acid

>  <Smiles>  (538) 
CN1CC(C(=O)[*:2])N([*:1])CC1=O

>  <ProtectedSmiles>  (538) 
CN1CC(C(=O)O)N(C(=O)OCC2c3ccccc3-c3ccccc32)CC1=O

>  <CAS>  (538) 
2137470-37-0

>  <User>  (538) 
Sevan.habeshian@orbismedicines.com

>  <StereoComment>  (538) 
as drawn

>  <Name>  (538) 
N/A

>  <Code>  (538) 
MePipzCA

>  <AliasLowerCase>  (538) 
mepipzca

>  <LatestVersion>  (538) 
0.0

>  <createdAt>  (538) 
2026-02-13T09:56:35.394Z

>  <updatedAt>  (538) 
2026-02-13T09:56:35.394Z

>  <NumRotatableBonds>  (538) 
1

>  <is_N_methyl>  (538) 
False

>  <is_a_methyl>  (538) 
False

>  <is_alpha_aa>  (538) 
True

>  <is_beta_aa>  (538) 
False

>  <is_S100_aa>  (538) 
False

>  <Murcko_SMILES>  (538) 
O=C1CNCCN1

$$$$

     RDKit          2D

 10 10  0  0  0  0  0  0  0  0999 V2000
    3.5260    1.2990    0.0000 O   0  0  0  0  0  0  0  0  0  0  0  0
    2.7760    0.0000    0.0000 C   0  0  0  0  0  0  0  0  0  0  0  0
    1.2760    0.0000    0.0000 C   0  0  0  0  0  0  0  0  0  0  0  0
    0.3943    1.2135    0.0000 C   0  0  0  0  0  0  0  0  0  0  0  0
   -1.0323    0.7500    0.0000 C   0  0  0  0  0  0  0  0  0  0  0  0
   -2.2458    1.6317    0.0000 O   0  0  0  0  0  0  0  0  0  0  0  0
   -1.0323   -0.7500    0.0000 C   0  0  0  0  0  0  0  0  0  0  0  0
    0.3943   -1.2135    0.0000 N   0  0  0  0  0  0  0  0  0  0  0  0
    0.8578   -2.6401    0.0000 R   0  0  0  0  0  1  0  0  0  1  0  0
    3.5260   -1.2990    0.0000 R   0  0  0  0  0  1  0  0  0  2  0  0
  1  2  2  0
  3  2  1  1
  3  4  1  0
  4  5  1  0
  5  6  1  1
  5  7  1  0
  7  8  1  0
  8  9  1  0
  2 10  1  0
  8  3  1  0
M  END
>  <id>  (539) 
0f46fcae-f41b-4f2b-890e-d8aa3768c60b

>  <Version>  (539) 
0

>  <Alias>  (539) 
trans-Hyp

>  <Type>  (539) 
amino_acid

>  <Smiles>  (539) 
O=C([C@@H]1C[C@H](O)CN1[*:1])[*:2]

>  <ProtectedSmiles>  (539) 
CC(C)(C)O[C@H]1C[C@@H](C(=O)O)N(C(=O)OCC2c3ccccc3-c3ccccc32)C1

>  <CAS>  (539) 
464193-92-8

>  <User>  (539) 
sevan.h

>  <StereoComment>  (539) 
as drawn

>  <Name>  (539) 
(2S,4S)-4-(tBuO)-1-Fmoc-pyrrolidine-2-carboxylic acid

>  <Code>  (539) 
trans-Hyp

>  <AliasLowerCase>  (539) 
trans-hyp

>  <LatestVersion>  (539) 
0.0

>  <createdAt>  (539) 
2026-01-14T12:15:20.018Z

>  <updatedAt>  (539) 
2026-01-14T12:15:20.018Z

>  <NumRotatableBonds>  (539) 
1

>  <is_N_methyl>  (539) 
False

>  <is_a_methyl>  (539) 
False

>  <is_alpha_aa>  (539) 
True

>  <is_beta_aa>  (539) 
False

>  <is_S100_aa>  (539) 
False

>  <Murcko_SMILES>  (539) 
C1CCNC1

$$$$

     RDKit          2D

 16 16  0  0  0  0  0  0  0  0999 V2000
    3.7500   -1.2990    0.0000 C   0  0  0  0  0  0  0  0  0  0  0  0
    3.0000    0.0000    0.0000 O   0  0  0  0  0  0  0  0  0  0  0  0
    1.5000    0.0000    0.0000 C   0  0  0  0  0  0  0  0  0  0  0  0
    0.7500   -1.2990    0.0000 C   0  0  0  0  0  0  0  0  0  0  0  0
   -0.7500   -1.2990    0.0000 C   0  0  0  0  0  0  0  0  0  0  0  0
   -1.5000    0.0000    0.0000 C   0  0  0  0  0  0  0  0  0  0  0  0
   -3.0000    0.0000    0.0000 C   0  0  0  0  0  0  0  0  0  0  0  0
   -3.7500    1.2990    0.0000 C   0  0  0  0  0  0  0  0  0  0  0  0
   -5.2500    1.2990    0.0000 C   0  0  0  0  0  0  0  0  0  0  0  0
   -6.0000    2.5981    0.0000 C   0  0  0  0  0  0  0  0  0  0  0  0
   -5.2500    3.8971    0.0000 O   0  0  0  0  0  0  0  0  0  0  0  0
   -7.5000    2.5981    0.0000 R   0  0  0  0  0  1  0  0  0  2  0  0
   -3.7500   -1.2990    0.0000 N   0  0  0  0  0  0  0  0  0  0  0  0
   -5.2500   -1.2990    0.0000 R   0  0  0  0  0  1  0  0  0  1  0  0
   -0.7500    1.2990    0.0000 C   0  0  0  0  0  0  0  0  0  0  0  0
    0.7500    1.2990    0.0000 C   0  0  0  0  0  0  0  0  0  0  0  0
  1  2  1  0
  2  3  1  0
  3  4  2  0
  4  5  1  0
  5  6  2  0
  6  7  1  0
  7  8  1  0
  8  9  1  0
  9 10  1  0
 10 11  2  0
 10 12  1  0
  7 13  1  0
 13 14  1  0
  6 15  1  0
 15 16  2  0
 16  3  1  0
M  END
>  <id>  (540) 
579a9097-f4a0-4c22-bc45-d4c5e7c4aff7

>  <Version>  (540) 
0

>  <Alias>  (540) 
rac4MeOPhe-4-GABA

>  <Type>  (540) 
amino_acid

>  <Smiles>  (540) 
COc1ccc(C(CCC(=O)[*:2])N[*:1])cc1

>  <ProtectedSmiles>  (540) 
COc1ccc(C(CCC(=O)O)NC(=O)OCC2c3ccccc3-c3ccccc32)cc1

>  <CAS>  (540) 
2137916-90-4

>  <User>  (540) 
Sevan.habeshian@orbismedicines.com

>  <StereoComment>  (540) 
as drawn

>  <Name>  (540) 
N/A

>  <Code>  (540) 
rac4MeOPhe-4-GABA

>  <AliasLowerCase>  (540) 
rac4meophe-4-gaba

>  <LatestVersion>  (540) 
0.0

>  <createdAt>  (540) 
2026-02-13T09:56:35.507Z

>  <updatedAt>  (540) 
2026-02-13T09:56:35.507Z

>  <NumRotatableBonds>  (540) 
6

>  <is_N_methyl>  (540) 
False

>  <is_a_methyl>  (540) 
False

>  <is_alpha_aa>  (540) 
False

>  <is_beta_aa>  (540) 
False

>  <is_S100_aa>  (540) 
False

>  <Murcko_SMILES>  (540) 
c1ccccc1

$$$$

     RDKit          2D

 10  9  0  0  0  0  0  0  0  0999 V2000
    6.4952    0.7500    0.0000 C   0  0  0  0  0  0  0  0  0  0  0  0
    5.1962   -0.0000    0.0000 C   0  0  0  0  0  0  0  0  0  0  0  0
    5.1962   -1.5000    0.0000 C   0  0  0  0  0  0  0  0  0  0  0  0
    3.8971    0.7500    0.0000 C   0  0  0  0  0  0  0  0  0  0  0  0
    2.5981   -0.0000    0.0000 C   0  0  0  0  0  0  0  0  0  0  0  0
    1.2990    0.7500    0.0000 N   0  0  0  0  0  0  0  0  0  0  0  0
    0.0000    0.0000    0.0000 R   0  0  0  0  0  1  0  0  0  1  0  0
    2.5981   -1.5000    0.0000 C   0  0  0  0  0  0  0  0  0  0  0  0
    1.2990   -2.2500    0.0000 O   0  0  0  0  0  0  0  0  0  0  0  0
    3.8971   -2.2500    0.0000 R   0  0  0  0  0  1  0  0  0  2  0  0
  1  2  1  0
  2  3  1  0
  2  4  1  0
  5  4  1  1
  5  6  1  0
  6  7  1  0
  5  8  1  0
  8  9  2  0
  8 10  1  0
M  END
>  <id>  (541) 
09c4ecbc-b4a6-4f46-a52b-b8548ff2c28b

>  <Version>  (541) 
0

>  <Alias>  (541) 
Leu

>  <Type>  (541) 
amino_acid

>  <Smiles>  (541) 
CC(C)C[C@H](N[*:1])C(=O)[*:2]

>  <ProtectedSmiles>  (541) 
CC(C)C[C@H](NC(=O)OCC1c2ccccc2-c2ccccc21)C(=O)O

>  <CAS>  (541) 
35661-60-0

>  <User>  (541) 
sevan.h

>  <StereoComment>  (541) 
as drawn

>  <Name>  (541) 
Fmoc-Leu-OH

>  <Code>  (541) 
Leu

>  <AliasLowerCase>  (541) 
leu

>  <LatestVersion>  (541) 
0.0

>  <createdAt>  (541) 
2026-01-14T12:17:21.022Z

>  <updatedAt>  (541) 
2026-01-14T12:17:21.022Z

>  <NumRotatableBonds>  (541) 
4

>  <is_N_methyl>  (541) 
False

>  <is_a_methyl>  (541) 
False

>  <is_alpha_aa>  (541) 
True

>  <is_beta_aa>  (541) 
False

>  <is_S100_aa>  (541) 
False

>  <Murcko_SMILES>  (541) 


$$$$

     RDKit          2D

 14 14  0  0  0  0  0  0  0  0999 V2000
    3.0000   -2.5981    0.0000 O   0  0  0  0  0  0  0  0  0  0  0  0
    3.7500   -1.2990    0.0000 C   0  0  0  0  0  0  0  0  0  0  0  0
    3.0000    0.0000    0.0000 C   0  0  0  0  0  0  0  0  0  0  0  0
    3.7500    1.2990    0.0000 N   0  0  0  0  0  0  0  0  0  0  0  0
    5.2500    1.2990    0.0000 R   0  0  0  0  0  1  0  0  0  1  0  0
    1.5000    0.0000    0.0000 C   0  0  0  0  0  0  0  0  0  0  0  0
    0.7500   -1.2990    0.0000 C   0  0  0  0  0  0  0  0  0  0  0  0
   -0.7500   -1.2990    0.0000 C   0  0  0  0  0  0  0  0  0  0  0  0
   -1.5000   -2.5981    0.0000 F   0  0  0  0  0  0  0  0  0  0  0  0
   -1.5000    0.0000    0.0000 C   0  0  0  0  0  0  0  0  0  0  0  0
   -0.7500    1.2990    0.0000 C   0  0  0  0  0  0  0  0  0  0  0  0
    0.7500    1.2990    0.0000 C   0  0  0  0  0  0  0  0  0  0  0  0
    1.5000    2.5981    0.0000 F   0  0  0  0  0  0  0  0  0  0  0  0
    5.2500   -1.2990    0.0000 R   0  0  0  0  0  1  0  0  0  2  0  0
  1  2  2  0
  2  3  1  0
  3  4  1  0
  4  5  1  0
  3  6  1  0
  6  7  2  0
  7  8  1  0
  8  9  1  0
  8 10  2  0
 10 11  1  0
 11 12  2  0
 12 13  1  0
  2 14  1  0
 12  6  1  0
M  END
>  <id>  (542) 
316b3a7b-23f3-4e64-81b1-90ded007134c

>  <Version>  (542) 
0

>  <Alias>  (542) 
rac2,5diFPhGly

>  <Type>  (542) 
amino_acid

>  <Smiles>  (542) 
O=C(C(N[*:1])c1cc(F)ccc1F)[*:2]

>  <ProtectedSmiles>  (542) 
O=C(NC(C(=O)O)c1cc(F)ccc1F)OCC1c2ccccc2-c2ccccc21

>  <CAS>  (542) 
678988-22-2

>  <User>  (542) 
angelica.l

>  <StereoComment>  (542) 
as drawn

>  <Name>  (542) 
2-(2,5-difluorophenyl)-2-({[(9H-fluoren-9-yl)methoxy]carbonyl}amino)acetic acid

>  <Code>  (542) 
rac2,5diFPhGly

>  <AliasLowerCase>  (542) 
rac2,5difphgly

>  <LatestVersion>  (542) 
0.0

>  <createdAt>  (542) 
2026-01-14T11:35:22.465Z

>  <updatedAt>  (542) 
2026-01-14T11:35:22.465Z

>  <NumRotatableBonds>  (542) 
3

>  <is_N_methyl>  (542) 
False

>  <is_a_methyl>  (542) 
False

>  <is_alpha_aa>  (542) 
True

>  <is_beta_aa>  (542) 
False

>  <is_S100_aa>  (542) 
False

>  <Murcko_SMILES>  (542) 
c1ccccc1

$$$$

     RDKit          2D

 13 13  0  0  0  0  0  0  0  0999 V2000
    8.0260   -1.2990    0.0000 O   0  0  0  0  0  0  0  0  0  0  0  0
    7.2760    0.0000    0.0000 C   0  0  0  0  0  0  0  0  0  0  0  0
    5.7760    0.0000    0.0000 C   0  0  0  0  0  0  0  0  0  0  0  0
    5.0260   -1.2990    0.0000 N   0  0  0  0  0  0  0  0  0  0  0  0
    3.5260   -1.2990    0.0000 C   0  0  0  0  0  0  0  0  0  0  0  0
    2.7760    0.0000    0.0000 C   0  0  0  0  0  0  0  0  0  0  0  0
    1.2760    0.0000    0.0000 C   0  0  0  0  0  0  0  0  0  0  0  0
    0.3943    1.2135    0.0000 C   0  0  0  0  0  0  0  0  0  0  0  0
   -1.0323    0.7500    0.0000 N   0  0  0  0  0  0  0  0  0  0  0  0
   -1.0323   -0.7500    0.0000 C   0  0  0  0  0  0  0  0  0  0  0  0
    0.3943   -1.2135    0.0000 N   0  0  0  0  0  0  0  0  0  0  0  0
    5.7760   -2.5981    0.0000 R   0  0  0  0  0  1  0  0  0  1  0  0
    8.0260    1.2990    0.0000 R   0  0  0  0  0  1  0  0  0  2  0  0
  1  2  2  0
  2  3  1  0
  3  4  1  0
  4  5  1  0
  5  6  1  0
  6  7  1  0
  7  8  2  0
  8  9  1  0
  9 10  2  0
 10 11  1  0
  4 12  1  0
  2 13  1  0
 11  7  1  0
M  END
>  <id>  (543) 
2168aadb-c423-4a8f-bee8-b71b412353f8

>  <Version>  (543) 
0

>  <Alias>  (543) 
(1H-ImEt)Gly

>  <Type>  (543) 
amino_acid

>  <Smiles>  (543) 
O=C(CN(CCc1cnc[nH]1)[*:1])[*:2]

>  <ProtectedSmiles>  (543) 
O=C(O)CN(CCc1cnc[nH]1)C(=O)OCC1c2ccccc2-c2ccccc21

>  <CAS>  (543) 
2758504-66-2

>  <User>  (543) 
mischa.s

>  <StereoComment>  (543) 
as drawn

>  <Name>  (543) 
N-[(9H-Fluoren-9-ylmethoxy)carbonyl]-N-[2-(1H-imidazol-5-yl)ethyl]glycine

>  <Code>  (543) 
(1H-ImEt)Gly

>  <AliasLowerCase>  (543) 
(1h-imet)gly

>  <LatestVersion>  (543) 
0.0

>  <createdAt>  (543) 
2026-01-14T11:33:54.358Z

>  <updatedAt>  (543) 
2026-01-14T11:33:54.358Z

>  <NumRotatableBonds>  (543) 
5

>  <is_N_methyl>  (543) 
False

>  <is_a_methyl>  (543) 
False

>  <is_alpha_aa>  (543) 
True

>  <is_beta_aa>  (543) 
False

>  <is_S100_aa>  (543) 
False

>  <Murcko_SMILES>  (543) 
c1c[nH]cn1

$$$$

     RDKit          2D

 16 16  0  0  0  0  0  0  0  0999 V2000
    3.7500   -1.2990    0.0000 N   0  0  0  0  0  0  0  0  0  0  0  0
    3.0000    0.0000    0.0000 C   0  0  0  0  0  0  0  0  0  0  0  0
    3.7500    1.2990    0.0000 O   0  0  0  0  0  0  0  0  0  0  0  0
    1.5000    0.0000    0.0000 C   0  0  0  0  0  0  0  0  0  0  0  0
    0.7500   -1.2990    0.0000 C   0  0  0  0  0  0  0  0  0  0  0  0
   -0.7500   -1.2990    0.0000 C   0  0  0  0  0  0  0  0  0  0  0  0
   -1.5000    0.0000    0.0000 C   0  0  0  0  0  0  0  0  0  0  0  0
   -0.7500    1.2990    0.0000 C   0  0  0  0  0  0  0  0  0  0  0  0
   -1.5000    2.5981    0.0000 C   0  0  0  0  0  0  0  0  0  0  0  0
   -0.7500    3.8971    0.0000 C   0  0  0  0  0  0  0  0  0  0  0  0
    0.7500    3.8971    0.0000 N   0  0  0  0  0  0  0  0  0  0  0  0
    1.5000    5.1962    0.0000 R   0  0  0  0  0  1  0  0  0  1  0  0
   -1.5000    5.1962    0.0000 C   0  0  0  0  0  0  0  0  0  0  0  0
   -3.0000    5.1962    0.0000 O   0  0  0  0  0  0  0  0  0  0  0  0
   -0.7500    6.4952    0.0000 R   0  0  0  0  0  1  0  0  0  2  0  0
    0.7500    1.2990    0.0000 C   0  0  0  0  0  0  0  0  0  0  0  0
  1  2  1  0
  2  3  2  0
  2  4  1  0
  4  5  2  0
  5  6  1  0
  6  7  2  0
  7  8  1  0
  8  9  1  0
 10  9  1  1
 10 11  1  0
 11 12  1  0
 10 13  1  0
 13 14  2  0
 13 15  1  0
  8 16  2  0
 16  4  1  0
M  END
>  <id>  (544) 
99ce73d0-daaa-423b-a426-0b7333fbc497

>  <Version>  (544) 
0

>  <Alias>  (544) 
(3-CONH2)Phe

>  <Type>  (544) 
amino_acid

>  <Smiles>  (544) 
NC(=O)c1cccc(C[C@H](N[*:1])C(=O)[*:2])c1

>  <ProtectedSmiles>  (544) 
NC(=O)c1cccc(C[C@H](NC(=O)OCC2c3ccccc3-c3ccccc32)C(=O)O)c1

>  <CAS>  (544) 
959573-22-9

>  <User>  (544) 
clement.gensous@orbismedicines.com

>  <StereoComment>  (544) 
as drawn

>  <Name>  (544) 
(3-CONH2)Phe

>  <Code>  (544) 
(3-CONH2)Phe

>  <AliasLowerCase>  (544) 
(3-conh2)phe

>  <LatestVersion>  (544) 
0.0

>  <createdAt>  (544) 
2026-01-15T09:28:31.624Z

>  <updatedAt>  (544) 
2026-01-15T09:28:31.624Z

>  <NumRotatableBonds>  (544) 
5

>  <is_N_methyl>  (544) 
False

>  <is_a_methyl>  (544) 
False

>  <is_alpha_aa>  (544) 
True

>  <is_beta_aa>  (544) 
False

>  <is_S100_aa>  (544) 
False

>  <Murcko_SMILES>  (544) 
c1ccccc1

$$$$

     RDKit          2D

  9  8  0  0  0  0  0  0  0  0999 V2000
    6.4952    0.7500    0.0000 C   0  0  0  0  0  0  0  0  0  0  0  0
    5.1962   -0.0000    0.0000 C   0  0  0  0  0  0  0  0  0  0  0  0
    3.8971    0.7500    0.0000 C   0  0  0  0  0  0  0  0  0  0  0  0
    2.5981   -0.0000    0.0000 C   0  0  0  0  0  0  0  0  0  0  0  0
    1.2990    0.7500    0.0000 N   0  0  0  0  0  0  0  0  0  0  0  0
    0.0000    0.0000    0.0000 R   0  0  0  0  0  1  0  0  0  1  0  0
    2.5981   -1.5000    0.0000 C   0  0  0  0  0  0  0  0  0  0  0  0
    1.2990   -2.2500    0.0000 O   0  0  0  0  0  0  0  0  0  0  0  0
    3.8971   -2.2500    0.0000 R   0  0  0  0  0  1  0  0  0  2  0  0
  1  2  1  0
  2  3  1  0
  4  3  1  6
  4  5  1  0
  5  6  1  0
  4  7  1  0
  7  8  2  0
  7  9  1  0
M  END
>  <id>  (545) 
be918ff4-6fbe-4118-af2c-81dadc44bcbb

>  <Version>  (545) 
0

>  <Alias>  (545) 
D-Nva

>  <Type>  (545) 
amino_acid

>  <Smiles>  (545) 
CCC[C@@H](N[*:1])C(=O)[*:2]

>  <ProtectedSmiles>  (545) 
CCC[C@@H](NC(=O)OCC1c2ccccc2-c2ccccc21)C(=O)O

>  <CAS>  (545) 
144701-24-6

>  <User>  (545) 
sevan.h

>  <StereoComment>  (545) 
as drawn

>  <Name>  (545) 
Fmoc-D-Nva-OH

>  <Code>  (545) 
D-Nva

>  <AliasLowerCase>  (545) 
d-nva

>  <LatestVersion>  (545) 
0.0

>  <createdAt>  (545) 
2026-01-14T12:16:26.316Z

>  <updatedAt>  (545) 
2026-01-14T12:16:26.316Z

>  <NumRotatableBonds>  (545) 
4

>  <is_N_methyl>  (545) 
False

>  <is_a_methyl>  (545) 
False

>  <is_alpha_aa>  (545) 
True

>  <is_beta_aa>  (545) 
False

>  <is_S100_aa>  (545) 
False

>  <Murcko_SMILES>  (545) 


$$$$

     RDKit          2D

 12 11  0  0  0  0  0  0  0  0999 V2000
    7.7942   -0.0000    0.0000 C   0  0  0  0  0  0  0  0  0  0  0  0
    6.4952    0.7500    0.0000 N   0  0  0  0  0  0  0  0  0  0  0  0
    6.4952    2.2500    0.0000 C   0  0  0  0  0  0  0  0  0  0  0  0
    5.1962   -0.0000    0.0000 C   0  0  0  0  0  0  0  0  0  0  0  0
    5.1962   -1.5000    0.0000 O   0  0  0  0  0  0  0  0  0  0  0  0
    3.8971    0.7500    0.0000 C   0  0  0  0  0  0  0  0  0  0  0  0
    2.5981   -0.0000    0.0000 C   0  0  0  0  0  0  0  0  0  0  0  0
    1.2990    0.7500    0.0000 N   0  0  0  0  0  0  0  0  0  0  0  0
    0.0000    0.0000    0.0000 R   0  0  0  0  0  1  0  0  0  1  0  0
    2.5981   -1.5000    0.0000 C   0  0  0  0  0  0  0  0  0  0  0  0
    1.2990   -2.2500    0.0000 O   0  0  0  0  0  0  0  0  0  0  0  0
    3.8971   -2.2500    0.0000 R   0  0  0  0  0  1  0  0  0  2  0  0
  1  2  1  0
  2  3  1  0
  2  4  1  0
  4  5  2  0
  4  6  1  0
  7  6  1  1
  7  8  1  0
  8  9  1  0
  7 10  1  0
 10 11  2  0
 10 12  1  0
M  END
>  <id>  (546) 
79a6a30d-27ad-4a73-827a-c54f4d37faa7

>  <Version>  (546) 
0

>  <Alias>  (546) 
Asn(NMe2)

>  <Type>  (546) 
amino_acid

>  <Smiles>  (546) 
CN(C)C(=O)C[C@H](N[*:1])C(=O)[*:2]

>  <ProtectedSmiles>  (546) 
CN(C)C(=O)C[C@H](NC(=O)OCC1c2ccccc2-c2ccccc21)C(=O)O

>  <CAS>  (546) 
138585-02-1

>  <User>  (546) 
sevan.h

>  <StereoComment>  (546) 
as drawn

>  <Name>  (546) 
Fmoc-Asn(NMe2)-OH

>  <Code>  (546) 
Asn(NMe2)

>  <AliasLowerCase>  (546) 
asn(nme2)

>  <LatestVersion>  (546) 
0.0

>  <createdAt>  (546) 
2026-01-14T12:15:18.881Z

>  <updatedAt>  (546) 
2026-01-14T12:15:18.881Z

>  <NumRotatableBonds>  (546) 
4

>  <is_N_methyl>  (546) 
False

>  <is_a_methyl>  (546) 
False

>  <is_alpha_aa>  (546) 
True

>  <is_beta_aa>  (546) 
False

>  <is_S100_aa>  (546) 
False

>  <Murcko_SMILES>  (546) 


$$$$

     RDKit          2D

 14 14  0  0  0  0  0  0  0  0999 V2000
    3.0000    0.0000    0.0000 C   0  0  0  0  0  0  0  0  0  0  0  0
    1.5000    0.0000    0.0000 C   0  0  0  0  0  0  0  0  0  0  0  0
    0.7500   -1.2990    0.0000 C   0  0  0  0  0  0  0  0  0  0  0  0
   -0.7500   -1.2990    0.0000 C   0  0  0  0  0  0  0  0  0  0  0  0
   -1.5000    0.0000    0.0000 C   0  0  0  0  0  0  0  0  0  0  0  0
   -3.0000    0.0000    0.0000 C   0  0  0  0  0  0  0  0  0  0  0  0
   -3.7500    1.2990    0.0000 C   0  0  0  0  0  0  0  0  0  0  0  0
   -5.2500    1.2990    0.0000 C   0  0  0  0  0  0  0  0  0  0  0  0
   -6.0000   -0.0000    0.0000 O   0  0  0  0  0  0  0  0  0  0  0  0
   -6.0000    2.5981    0.0000 R   0  0  0  0  0  1  0  0  0  2  0  0
   -3.7500   -1.2990    0.0000 N   0  0  0  0  0  0  0  0  0  0  0  0
   -5.2500   -1.2990    0.0000 R   0  0  0  0  0  1  0  0  0  1  0  0
   -0.7500    1.2990    0.0000 C   0  0  0  0  0  0  0  0  0  0  0  0
    0.7500    1.2990    0.0000 C   0  0  0  0  0  0  0  0  0  0  0  0
  1  2  1  0
  2  3  2  0
  3  4  1  0
  4  5  2  0
  5  6  1  0
  6  7  1  0
  7  8  1  0
  8  9  2  0
  8 10  1  0
  6 11  1  0
 11 12  1  0
  5 13  1  0
 13 14  2  0
 14  2  1  0
M  END
>  <id>  (547) 
985510c0-0ad4-42f9-a0c3-a52b68eca8fa

>  <Version>  (547) 
0

>  <Alias>  (547) 
rac3-(4MePh)PA

>  <Type>  (547) 
amino_acid

>  <Smiles>  (547) 
Cc1ccc(C(CC(=O)[*:2])N[*:1])cc1

>  <ProtectedSmiles>  (547) 
Cc1ccc(C(CC(=O)O)NC(=O)OCC2c3ccccc3-c3ccccc32)cc1

>  <CAS>  (547) 
284492-08-6

>  <User>  (547) 
mischa.s

>  <StereoComment>  (547) 
as drawn

>  <Name>  (547) 
3-((((9H-fluoren-9-yl)methoxy)carbonyl)amino)-3-(p-tolyl)propanoic acid

>  <Code>  (547) 
rac3-(4MePh)PA

>  <AliasLowerCase>  (547) 
rac3-(4meph)pa

>  <LatestVersion>  (547) 
0.0

>  <createdAt>  (547) 
2026-01-14T11:34:56.666Z

>  <updatedAt>  (547) 
2026-01-14T11:34:56.666Z

>  <NumRotatableBonds>  (547) 
4

>  <is_N_methyl>  (547) 
False

>  <is_a_methyl>  (547) 
False

>  <is_alpha_aa>  (547) 
False

>  <is_beta_aa>  (547) 
True

>  <is_S100_aa>  (547) 
False

>  <Murcko_SMILES>  (547) 
c1ccccc1

$$$$

     RDKit          2D

 13 13  0  0  0  0  0  0  0  0999 V2000
    6.0000    0.0000    0.0000 O   0  0  0  0  0  0  0  0  0  0  0  0
    5.2500   -1.2990    0.0000 C   0  0  0  0  0  0  0  0  0  0  0  0
    3.7500   -1.2990    0.0000 C   0  0  0  0  0  0  0  0  0  0  0  0
    3.0000    0.0000    0.0000 C   0  0  0  0  0  0  0  0  0  0  0  0
    1.5000    0.0000    0.0000 C   0  0  0  0  0  0  0  0  0  0  0  0
    0.7500   -1.2990    0.0000 C   0  0  0  0  0  0  0  0  0  0  0  0
   -0.7500   -1.2990    0.0000 C   0  0  0  0  0  0  0  0  0  0  0  0
   -1.5000    0.0000    0.0000 N   0  0  0  0  0  0  0  0  0  0  0  0
   -0.7500    1.2990    0.0000 C   0  0  0  0  0  0  0  0  0  0  0  0
    0.7500    1.2990    0.0000 C   0  0  0  0  0  0  0  0  0  0  0  0
    3.0000   -2.5981    0.0000 N   0  0  0  0  0  0  0  0  0  0  0  0
    3.7500   -3.8971    0.0000 R   0  0  0  0  0  1  0  0  0  1  0  0
    6.0000   -2.5981    0.0000 R   0  0  0  0  0  1  0  0  0  2  0  0
  1  2  2  0
  2  3  1  0
  3  4  1  0
  4  5  1  0
  5  6  2  0
  6  7  1  0
  7  8  2  0
  8  9  1  0
  9 10  2  0
  3 11  1  0
 11 12  1  0
  2 13  1  0
 10  5  1  0
M  END
>  <id>  (548) 
401a7d04-4555-4929-af79-629589c0101f

>  <Version>  (548) 
0

>  <Alias>  (548) 
rac4Pyr

>  <Type>  (548) 
amino_acid

>  <Smiles>  (548) 
O=C(C(Cc1ccncc1)N[*:1])[*:2]

>  <ProtectedSmiles>  (548) 
O=C(NC(Cc1ccncc1)C(=O)O)OCC1c2ccccc2-c2ccccc21

>  <CAS>  (548) 
746672-87-7

>  <User>  (548) 
mischa.s

>  <StereoComment>  (548) 
as drawn

>  <Name>  (548) 
racemic Fmoc-4Pyr-OH

>  <Code>  (548) 
rac4Pyr

>  <AliasLowerCase>  (548) 
rac4pyr

>  <LatestVersion>  (548) 
0.0

>  <createdAt>  (548) 
2026-01-14T11:37:19.549Z

>  <updatedAt>  (548) 
2026-01-14T11:37:19.549Z

>  <NumRotatableBonds>  (548) 
4

>  <is_N_methyl>  (548) 
False

>  <is_a_methyl>  (548) 
False

>  <is_alpha_aa>  (548) 
True

>  <is_beta_aa>  (548) 
False

>  <is_S100_aa>  (548) 
False

>  <Murcko_SMILES>  (548) 
c1ccncc1

$$$$

     RDKit          2D

  9  9  0  0  0  0  0  0  0  0999 V2000
    3.5260    1.2990    0.0000 O   0  0  0  0  0  0  0  0  0  0  0  0
    2.7760    0.0000    0.0000 C   0  0  0  0  0  0  0  0  0  0  0  0
    1.2760    0.0000    0.0000 C   0  0  0  0  0  0  0  0  0  0  0  0
    0.3943    1.2135    0.0000 C   0  0  0  0  0  0  0  0  0  0  0  0
   -1.0323    0.7500    0.0000 C   0  0  0  0  0  0  0  0  0  0  0  0
   -1.0323   -0.7500    0.0000 N   0  0  0  0  0  0  0  0  0  0  0  0
   -2.2458   -1.6317    0.0000 R   0  0  0  0  0  1  0  0  0  1  0  0
    0.3943   -1.2135    0.0000 C   0  0  0  0  0  0  0  0  0  0  0  0
    3.5260   -1.2990    0.0000 R   0  0  0  0  0  1  0  0  0  2  0  0
  1  2  2  0
  3  2  1  6
  3  4  1  0
  4  5  1  0
  5  6  1  0
  6  7  1  0
  6  8  1  0
  2  9  1  0
  8  3  1  0
M  END
>  <id>  (549) 
768dd644-ebb5-45fe-a5e6-63a530e635db

>  <Version>  (549) 
0

>  <Alias>  (549) 
1Pyr

>  <Type>  (549) 
amino_acid

>  <Smiles>  (549) 
O=C([C@H]1CCN([*:1])C1)[*:2]

>  <ProtectedSmiles>  (549) 
O=C(O)[C@H]1CCN(C(=O)OCC2c3ccccc3-c3ccccc32)C1

>  <CAS>  (549) 
193693-66-2

>  <User>  (549) 
sevan.h

>  <StereoComment>  (549) 
as drawn

>  <Name>  (549) 
(3S)-1-(9H-fluoren-9-ylmethoxycarbonyl)pyrrolidine-3-carboxylic acid

>  <Code>  (549) 
1Pyr

>  <AliasLowerCase>  (549) 
1pyr

>  <LatestVersion>  (549) 
0.0

>  <createdAt>  (549) 
2026-01-14T12:16:29.194Z

>  <updatedAt>  (549) 
2026-01-14T12:16:29.194Z

>  <NumRotatableBonds>  (549) 
1

>  <is_N_methyl>  (549) 
False

>  <is_a_methyl>  (549) 
False

>  <is_alpha_aa>  (549) 
False

>  <is_beta_aa>  (549) 
True

>  <is_S100_aa>  (549) 
False

>  <Murcko_SMILES>  (549) 
C1CCNC1

$$$$

     RDKit          2D

 13 13  0  0  0  0  0  0  0  0999 V2000
    6.0000    0.0000    0.0000 O   0  0  0  0  0  0  0  0  0  0  0  0
    5.2500   -1.2990    0.0000 C   0  0  0  0  0  0  0  0  0  0  0  0
    3.7500   -1.2990    0.0000 C   0  0  0  0  0  0  0  0  0  0  0  0
    3.0000    0.0000    0.0000 C   0  0  0  0  0  0  0  0  0  0  0  0
    1.5000    0.0000    0.0000 C   0  0  0  0  0  0  0  0  0  0  0  0
    0.7500   -1.2990    0.0000 C   0  0  0  0  0  0  0  0  0  0  0  0
   -0.7500   -1.2990    0.0000 C   0  0  0  0  0  0  0  0  0  0  0  0
   -1.5000    0.0000    0.0000 C   0  0  0  0  0  0  0  0  0  0  0  0
   -0.7500    1.2990    0.0000 C   0  0  0  0  0  0  0  0  0  0  0  0
    0.7500    1.2990    0.0000 N   0  0  0  0  0  0  0  0  0  0  0  0
    3.0000   -2.5981    0.0000 N   0  0  0  0  0  0  0  0  0  0  0  0
    3.7500   -3.8971    0.0000 R   0  0  0  0  0  1  0  0  0  1  0  0
    6.0000   -2.5981    0.0000 R   0  0  0  0  0  1  0  0  0  2  0  0
  1  2  2  0
  2  3  1  0
  3  4  1  0
  4  5  1  0
  5  6  2  0
  6  7  1  0
  7  8  2  0
  8  9  1  0
  9 10  2  0
  3 11  1  0
 11 12  1  0
  2 13  1  0
 10  5  1  0
M  END
>  <id>  (550) 
ac1cfb20-d43b-4904-906b-0f7de95720ec

>  <Version>  (550) 
0

>  <Alias>  (550) 
rac2Pyr

>  <Type>  (550) 
amino_acid

>  <Smiles>  (550) 
O=C(C(Cc1ccccn1)N[*:1])[*:2]

>  <ProtectedSmiles>  (550) 
O=C(NC(Cc1ccccn1)C(=O)O)OCC1c2ccccc2-c2ccccc21

>  <CAS>  (550) 
1236267-09-6

>  <User>  (550) 
clement.gensous@orbismedicines.com

>  <StereoComment>  (550) 
as drawn

>  <Name>  (550) 
α-[[(9H-Fluoren-9-ylmethoxy)carbonyl]amino]-2-pyridinepropanoic acid

>  <Code>  (550) 
rac2Pyr

>  <AliasLowerCase>  (550) 
rac2pyr

>  <LatestVersion>  (550) 
0.0

>  <createdAt>  (550) 
2026-02-26T08:54:34.600Z

>  <updatedAt>  (550) 
2026-02-26T08:54:34.600Z

>  <NumRotatableBonds>  (550) 
4

>  <is_N_methyl>  (550) 
False

>  <is_a_methyl>  (550) 
False

>  <is_alpha_aa>  (550) 
True

>  <is_beta_aa>  (550) 
False

>  <is_S100_aa>  (550) 
False

>  <Murcko_SMILES>  (550) 
c1ccncc1

$$$$

     RDKit          2D

 10  9  0  0  0  0  0  0  0  0999 V2000
    3.1471    2.0490    0.0000 C   0  0  0  0  0  0  0  0  0  0  0  0
    3.8971    0.7500    0.0000 C   0  0  0  0  0  0  0  0  0  0  0  0
    4.6471   -0.5490    0.0000 C   0  0  0  0  0  0  0  0  0  0  0  0
    5.1962    1.5000    0.0000 O   0  0  0  0  0  0  0  0  0  0  0  0
    2.5981   -0.0000    0.0000 C   0  0  0  0  0  0  0  0  0  0  0  0
    1.2990    0.7500    0.0000 N   0  0  0  0  0  0  0  0  0  0  0  0
    0.0000    0.0000    0.0000 R   0  0  0  0  0  1  0  0  0  1  0  0
    2.5981   -1.5000    0.0000 C   0  0  0  0  0  0  0  0  0  0  0  0
    1.2990   -2.2500    0.0000 O   0  0  0  0  0  0  0  0  0  0  0  0
    3.8971   -2.2500    0.0000 R   0  0  0  0  0  1  0  0  0  2  0  0
  1  2  1  0
  2  3  1  0
  2  4  1  0
  2  5  1  0
  5  6  1  6
  6  7  1  0
  5  8  1  0
  8  9  2  0
  8 10  1  0
M  END
>  <id>  (551) 
6a3bffde-2640-44ca-9434-67e4896f9981

>  <Version>  (551) 
0

>  <Alias>  (551) 
D-B-OH-Val

>  <Type>  (551) 
amino_acid

>  <Smiles>  (551) 
CC(C)(O)[C@@H](N[*:1])C(=O)[*:2]

>  <ProtectedSmiles>  (551) 
CC(C)(O)[C@@H](NC(=O)OCC1c2ccccc2-c2ccccc21)C(=O)O

>  <CAS>  (551) 
884880-39-1

>  <User>  (551) 
Sevan.habeshian@orbismedicines.com

>  <StereoComment>  (551) 
as drawn

>  <Name>  (551) 
N/A

>  <Code>  (551) 
D-B-OH-Val

>  <AliasLowerCase>  (551) 
d-b-oh-val

>  <LatestVersion>  (551) 
0.0

>  <createdAt>  (551) 
2026-02-13T09:56:35.487Z

>  <updatedAt>  (551) 
2026-02-13T09:56:35.487Z

>  <NumRotatableBonds>  (551) 
3

>  <is_N_methyl>  (551) 
False

>  <is_a_methyl>  (551) 
False

>  <is_alpha_aa>  (551) 
True

>  <is_beta_aa>  (551) 
False

>  <is_S100_aa>  (551) 
False

>  <Murcko_SMILES>  (551) 


$$$$

     RDKit          2D

 13 13  0  0  0  0  0  0  0  0999 V2000
    3.0000   -2.5981    0.0000 O   0  0  0  0  0  0  0  0  0  0  0  0
    3.7500   -1.2990    0.0000 C   0  0  0  0  0  0  0  0  0  0  0  0
    3.0000    0.0000    0.0000 C   0  0  0  0  0  0  0  0  0  0  0  0
    1.5000    0.0000    0.0000 C   0  0  0  0  0  0  0  0  0  0  0  0
    0.7500   -1.2990    0.0000 C   0  0  0  0  0  0  0  0  0  0  0  0
   -0.7500   -1.2990    0.0000 C   0  0  0  0  0  0  0  0  0  0  0  0
   -1.5000    0.0000    0.0000 C   0  0  0  0  0  0  0  0  0  0  0  0
   -0.7500    1.2990    0.0000 C   0  0  0  0  0  0  0  0  0  0  0  0
    0.7500    1.2990    0.0000 C   0  0  0  0  0  0  0  0  0  0  0  0
    1.5000    2.5981    0.0000 C   0  0  0  0  0  0  0  0  0  0  0  0
    0.7500    3.8971    0.0000 N   0  0  0  0  0  0  0  0  0  0  0  0
    1.5000    5.1962    0.0000 R   0  0  0  0  0  1  0  0  0  1  0  0
    5.2500   -1.2990    0.0000 R   0  0  0  0  0  1  0  0  0  2  0  0
  1  2  2  0
  2  3  1  0
  3  4  1  0
  4  5  2  0
  5  6  1  0
  6  7  2  0
  7  8  1  0
  8  9  2  0
  9 10  1  0
 10 11  1  0
 11 12  1  0
  2 13  1  0
  9  4  1  0
M  END
>  <id>  (552) 
42fd9f6f-2a1a-4b9b-a960-3139ea3e9adf

>  <Version>  (552) 
0

>  <Alias>  (552) 
2AMPAc

>  <Type>  (552) 
amino_acid

>  <Smiles>  (552) 
O=C(Cc1ccccc1CN[*:1])[*:2]

>  <ProtectedSmiles>  (552) 
O=C(O)Cc1ccccc1CNC(=O)OCC1c2ccccc2-c2ccccc21

>  <CAS>  (552) 
882847-15-6

>  <User>  (552) 
marie.g

>  <StereoComment>  (552) 
as drawn

>  <Name>  (552) 
Fmoc-(2-aminomethylphenyl)acetic acid

>  <Code>  (552) 
2AMPAc

>  <AliasLowerCase>  (552) 
2ampac

>  <LatestVersion>  (552) 
0.0

>  <createdAt>  (552) 
2026-01-14T11:33:49.322Z

>  <updatedAt>  (552) 
2026-01-14T11:33:49.322Z

>  <NumRotatableBonds>  (552) 
4

>  <is_N_methyl>  (552) 
False

>  <is_a_methyl>  (552) 
False

>  <is_alpha_aa>  (552) 
False

>  <is_beta_aa>  (552) 
False

>  <is_S100_aa>  (552) 
False

>  <Murcko_SMILES>  (552) 
c1ccccc1

$$$$

     RDKit          2D

 12 12  0  0  0  0  0  0  0  0999 V2000
    3.7500    1.2990    0.0000 O   0  0  0  0  0  0  0  0  0  0  0  0
    3.0000    0.0000    0.0000 C   0  0  0  0  0  0  0  0  0  0  0  0
    1.5000    0.0000    0.0000 C   0  0  0  0  0  0  0  0  0  0  0  0
    0.7500   -1.2990    0.0000 C   0  0  0  0  0  0  0  0  0  0  0  0
   -0.7500   -1.2990    0.0000 C   0  0  0  0  0  0  0  0  0  0  0  0
   -1.5000    0.0000    0.0000 C   0  0  0  0  0  0  0  0  0  0  0  0
   -0.7500    1.2990    0.0000 C   0  0  0  0  0  0  0  0  0  0  0  0
   -1.5000    2.5981    0.0000 C   0  0  0  0  0  0  0  0  0  0  0  0
   -0.7500    3.8971    0.0000 N   0  0  0  0  0  0  0  0  0  0  0  0
   -1.5000    5.1962    0.0000 R   0  0  0  0  0  1  0  0  0  1  0  0
    0.7500    1.2990    0.0000 C   0  0  0  0  0  0  0  0  0  0  0  0
    3.7500   -1.2990    0.0000 R   0  0  0  0  0  1  0  0  0  2  0  0
  1  2  2  0
  2  3  1  0
  3  4  2  0
  4  5  1  0
  5  6  2  0
  6  7  1  0
  7  8  1  0
  8  9  1  0
  9 10  1  0
  7 11  2  0
  2 12  1  0
 11  3  1  0
M  END
>  <id>  (553) 
161e06f8-5ea7-4c7d-9850-04bc07d6c9ee

>  <Version>  (553) 
0

>  <Alias>  (553) 
3AMBA

>  <Type>  (553) 
amino_acid

>  <Smiles>  (553) 
O=C(c1cccc(CN[*:1])c1)[*:2]

>  <ProtectedSmiles>  (553) 
O=C(NCc1cccc(C(=O)O)c1)OCC1c2ccccc2-c2ccccc21

>  <CAS>  (553) 
155369-11-2

>  <User>  (553) 
sevan.h

>  <StereoComment>  (553) 
as drawn

>  <Name>  (553) 
Fmoc-3-aminomethylbenzoic acid

>  <Code>  (553) 
3AMBA

>  <AliasLowerCase>  (553) 
3amba

>  <LatestVersion>  (553) 
0.0

>  <createdAt>  (553) 
2026-01-14T12:17:07.847Z

>  <updatedAt>  (553) 
2026-01-14T12:17:07.847Z

>  <NumRotatableBonds>  (553) 
3

>  <is_N_methyl>  (553) 
False

>  <is_a_methyl>  (553) 
False

>  <is_alpha_aa>  (553) 
False

>  <is_beta_aa>  (553) 
False

>  <is_S100_aa>  (553) 
False

>  <Murcko_SMILES>  (553) 
c1ccccc1

$$$$

     RDKit          2D

 10 10  0  0  0  0  0  0  0  0999 V2000
    3.7500    1.2990    0.0000 O   0  0  0  0  0  0  0  0  0  0  0  0
    3.0000    0.0000    0.0000 C   0  0  0  0  0  0  0  0  0  0  0  0
    1.5000    0.0000    0.0000 C   0  0  0  0  0  0  0  0  0  0  0  0
    0.7500   -1.2990    0.0000 C   0  0  0  0  0  0  0  0  0  0  0  0
   -0.7500   -1.2990    0.0000 C   0  0  0  0  0  0  0  0  0  0  0  0
   -1.5000    0.0000    0.0000 C   0  0  0  0  0  0  0  0  0  0  0  0
   -0.7500    1.2990    0.0000 N   0  0  0  0  0  0  0  0  0  0  0  0
   -1.5000    2.5981    0.0000 R   0  0  0  0  0  1  0  0  0  1  0  0
    0.7500    1.2990    0.0000 C   0  0  0  0  0  0  0  0  0  0  0  0
    3.7500   -1.2990    0.0000 R   0  0  0  0  0  1  0  0  0  2  0  0
  1  2  2  0
  3  2  1  6
  3  4  1  0
  4  5  1  0
  5  6  1  0
  6  7  1  0
  7  8  1  0
  7  9  1  0
  2 10  1  0
  9  3  1  0
M  END
>  <id>  (554) 
a9ec1276-e6af-48dc-9c98-cc70ee8c397f

>  <Version>  (554) 
0

>  <Alias>  (554) 
D-Nip

>  <Type>  (554) 
amino_acid

>  <Smiles>  (554) 
O=C([C@@H]1CCCN([*:1])C1)[*:2]

>  <ProtectedSmiles>  (554) 
O=C(O)[C@@H]1CCCN(C(=O)OCC2c3ccccc3-c3ccccc32)C1

>  <CAS>  (554) 
193693-67-3

>  <User>  (554) 
sevan.h

>  <StereoComment>  (554) 
as drawn

>  <Name>  (554) 
Fmoc-D-Nipecotic acid

>  <Code>  (554) 
D-Nip

>  <AliasLowerCase>  (554) 
d-nip

>  <LatestVersion>  (554) 
0.0

>  <createdAt>  (554) 
2026-01-14T12:16:00.318Z

>  <updatedAt>  (554) 
2026-01-14T12:16:00.318Z

>  <NumRotatableBonds>  (554) 
1

>  <is_N_methyl>  (554) 
False

>  <is_a_methyl>  (554) 
False

>  <is_alpha_aa>  (554) 
False

>  <is_beta_aa>  (554) 
True

>  <is_S100_aa>  (554) 
False

>  <Murcko_SMILES>  (554) 
C1CCNCC1

$$$$

     RDKit          2D

  9  8  0  0  0  0  0  0  0  0999 V2000
    5.1962   -0.0000    0.0000 C   0  0  0  0  0  0  0  0  0  0  0  0
    3.8971    0.7500    0.0000 C   0  0  0  0  0  0  0  0  0  0  0  0
    3.8971    2.2500    0.0000 O   0  0  0  0  0  0  0  0  0  0  0  0
    2.5981   -0.0000    0.0000 C   0  0  0  0  0  0  0  0  0  0  0  0
    1.2990    0.7500    0.0000 N   0  0  0  0  0  0  0  0  0  0  0  0
    0.0000    0.0000    0.0000 R   0  0  0  0  0  1  0  0  0  1  0  0
    2.5981   -1.5000    0.0000 C   0  0  0  0  0  0  0  0  0  0  0  0
    1.2990   -2.2500    0.0000 O   0  0  0  0  0  0  0  0  0  0  0  0
    3.8971   -2.2500    0.0000 R   0  0  0  0  0  1  0  0  0  2  0  0
  2  1  1  6
  2  3  1  0
  2  4  1  0
  4  5  1  1
  5  6  1  0
  4  7  1  0
  7  8  2  0
  7  9  1  0
M  END
>  <id>  (555) 
cd40d04d-8558-43b6-b43c-f52edb7c12a2

>  <Version>  (555) 
0

>  <Alias>  (555) 
Thr_UP

>  <Type>  (555) 
amino_acid

>  <Smiles>  (555) 
C[C@@H](O)[C@H](N[*:1])C(=O)[*:2]

>  <ProtectedSmiles>  (555) 
C[C@@H](O)[C@H](NC(=O)OCC1c2ccccc2-c2ccccc21)C(=O)O

>  <CAS>  (555) 
73731-37-0

>  <User>  (555) 
Sevan.habeshian@orbismedicines.com

>  <StereoComment>  (555) 
as drawn

>  <Name>  (555) 
N/A

>  <Code>  (555) 
Thr_UP

>  <AliasLowerCase>  (555) 
thr_up

>  <LatestVersion>  (555) 
0.0

>  <createdAt>  (555) 
2026-02-13T09:56:35.493Z

>  <updatedAt>  (555) 
2026-02-13T09:56:35.493Z

>  <NumRotatableBonds>  (555) 
3

>  <is_N_methyl>  (555) 
False

>  <is_a_methyl>  (555) 
False

>  <is_alpha_aa>  (555) 
True

>  <is_beta_aa>  (555) 
False

>  <is_S100_aa>  (555) 
False

>  <Murcko_SMILES>  (555) 


$$$$

     RDKit          2D

  7  6  0  0  0  0  0  0  0  0999 V2000
    3.8971    0.7500    0.0000 C   0  0  0  0  0  0  0  0  0  0  0  0
    2.5981   -0.0000    0.0000 C   0  0  0  0  0  0  0  0  0  0  0  0
    1.2990    0.7500    0.0000 N   0  0  0  0  0  0  0  0  0  0  0  0
    0.0000    0.0000    0.0000 R   0  0  0  0  0  1  0  0  0  1  0  0
    2.5981   -1.5000    0.0000 C   0  0  0  0  0  0  0  0  0  0  0  0
    1.2990   -2.2500    0.0000 O   0  0  0  0  0  0  0  0  0  0  0  0
    3.8971   -2.2500    0.0000 R   0  0  0  0  0  1  0  0  0  2  0  0
  1  2  1  0
  2  3  1  0
  3  4  1  0
  2  5  1  0
  5  6  2  0
  5  7  1  0
M  END
>  <id>  (556) 
699bc540-0df8-4330-8a43-4839217d16b0

>  <Version>  (556) 
0

>  <Alias>  (556) 
rac-Ala

>  <Type>  (556) 
amino_acid

>  <Smiles>  (556) 
CC(N[*:1])C(=O)[*:2]

>  <ProtectedSmiles>  (556) 
CC(NC(=O)OCC1c2ccccc2-c2ccccc21)C(=O)O

>  <CAS>  (556) 
35661-38-2

>  <User>  (556) 
clement.gensous@orbismedicines.com

>  <StereoComment>  (556) 
as drawn

>  <Name>  (556) 
rac-Ala

>  <Code>  (556) 
rac-Ala

>  <AliasLowerCase>  (556) 
rac-ala

>  <LatestVersion>  (556) 
0.0

>  <createdAt>  (556) 
2026-01-15T09:28:48.043Z

>  <updatedAt>  (556) 
2026-01-15T09:28:48.043Z

>  <NumRotatableBonds>  (556) 
2

>  <is_N_methyl>  (556) 
False

>  <is_a_methyl>  (556) 
False

>  <is_alpha_aa>  (556) 
True

>  <is_beta_aa>  (556) 
False

>  <is_S100_aa>  (556) 
False

>  <Murcko_SMILES>  (556) 


$$$$

     RDKit          2D

 13 13  0  0  0  0  0  0  0  0999 V2000
    3.2286   -2.5981    0.0000 O   0  0  0  0  0  0  0  0  0  0  0  0
    3.9786   -1.2990    0.0000 C   0  0  0  0  0  0  0  0  0  0  0  0
    3.2286   -0.0000    0.0000 C   0  0  0  0  0  0  0  0  0  0  0  0
    3.9786    1.2990    0.0000 N   0  0  0  0  0  0  0  0  0  0  0  0
    5.4786    1.2990    0.0000 R   0  0  0  0  0  1  0  0  0  1  0  0
    1.7286    0.0000    0.0000 C   0  0  0  0  0  0  0  0  0  0  0  0
    1.0777    1.3515    0.0000 C   0  0  0  0  0  0  0  0  0  0  0  0
   -0.3846    1.6852    0.0000 C   0  0  0  0  0  0  0  0  0  0  0  0
   -1.5574    0.7500    0.0000 C   0  0  0  0  0  0  0  0  0  0  0  0
   -1.5574   -0.7500    0.0000 C   0  0  0  0  0  0  0  0  0  0  0  0
   -0.3846   -1.6852    0.0000 C   0  0  0  0  0  0  0  0  0  0  0  0
    1.0777   -1.3515    0.0000 C   0  0  0  0  0  0  0  0  0  0  0  0
    5.4786   -1.2990    0.0000 R   0  0  0  0  0  1  0  0  0  2  0  0
  1  2  2  0
  2  3  1  0
  3  4  1  1
  4  5  1  0
  3  6  1  0
  6  7  1  0
  7  8  1  0
  8  9  1  0
  9 10  1  0
 10 11  1  0
 11 12  1  0
  2 13  1  0
 12  6  1  0
M  END
>  <id>  (557) 
4d8a7f20-ccb5-4536-adff-a2d6df64ec18

>  <Version>  (557) 
0

>  <Alias>  (557) 
D-Chp

>  <Type>  (557) 
amino_acid

>  <Smiles>  (557) 
O=C([C@H](N[*:1])C1CCCCCC1)[*:2]

>  <ProtectedSmiles>  (557) 
O=C(N[C@@H](C(=O)O)C1CCCCCC1)OCC1c2ccccc2-c2ccccc21

>  <CAS>  (557) 
2349413-71-2

>  <User>  (557) 
alice.granger@orbismedicines.com

>  <StereoComment>  (557) 
as drawn

>  <Name>  (557) 
(R)-2-((((9H-fluoren-9-yl)methoxy)carbonyl)amino)-2-cycloheptylacetic acid

>  <Code>  (557) 
D-Chp

>  <AliasLowerCase>  (557) 
d-chp

>  <LatestVersion>  (557) 
0.0

>  <createdAt>  (557) 
2026-03-11T10:37:04.552Z

>  <updatedAt>  (557) 
2026-03-11T10:37:04.552Z

>  <NumRotatableBonds>  (557) 
3

>  <is_N_methyl>  (557) 
False

>  <is_a_methyl>  (557) 
False

>  <is_alpha_aa>  (557) 
True

>  <is_beta_aa>  (557) 
False

>  <is_S100_aa>  (557) 
False

>  <Murcko_SMILES>  (557) 
C1CCCCCC1

$$$$

     RDKit          2D

 11 11  0  0  0  0  0  0  0  0999 V2000
    4.1291   -0.9271    0.0000 O   0  0  0  0  0  0  0  0  0  0  0  0
    3.8173    0.5402    0.0000 C   0  0  0  0  0  0  0  0  0  0  0  0
    2.3907    1.0037    0.0000 C   0  0  0  0  0  0  0  0  0  0  0  0
    1.2760    0.0000    0.0000 C   0  0  0  0  0  0  0  0  0  0  0  0
    2.3907   -1.0037    0.0000 N   0  0  0  0  0  0  0  0  0  0  0  0
    2.0788   -2.4709    0.0000 R   0  0  0  0  0  1  0  0  0  1  0  0
    0.3943    1.2135    0.0000 C   0  0  0  0  0  0  0  0  0  0  0  0
   -1.0323    0.7500    0.0000 C   0  0  0  0  0  0  0  0  0  0  0  0
   -1.0323   -0.7500    0.0000 O   0  0  0  0  0  0  0  0  0  0  0  0
    0.3943   -1.2135    0.0000 C   0  0  0  0  0  0  0  0  0  0  0  0
    4.9320    1.5439    0.0000 R   0  0  0  0  0  1  0  0  0  2  0  0
  1  2  2  0
  2  3  1  0
  3  4  1  0
  4  5  1  0
  5  6  1  0
  4  7  1  0
  7  8  1  0
  8  9  1  0
  9 10  1  0
  2 11  1  0
 10  4  1  0
M  END
>  <id>  (558) 
cb8906c9-2a88-412c-9a23-34d2198734c6

>  <Version>  (558) 
0

>  <Alias>  (558) 
OxolAcA

>  <Type>  (558) 
amino_acid

>  <Smiles>  (558) 
O=C(CC1(N[*:1])CCOC1)[*:2]

>  <ProtectedSmiles>  (558) 
O=C(O)CC1(NC(=O)OCC2c3ccccc3-c3ccccc32)CCOC1

>  <CAS>  (558) 
1935458-78-8

>  <User>  (558) 
Sevan.habeshian@orbismedicines.com

>  <StereoComment>  (558) 
as drawn

>  <Name>  (558) 
N/A

>  <Code>  (558) 
OxolAcA

>  <AliasLowerCase>  (558) 
oxolaca

>  <LatestVersion>  (558) 
0.0

>  <createdAt>  (558) 
2026-02-13T09:56:35.485Z

>  <updatedAt>  (558) 
2026-02-13T09:56:35.485Z

>  <NumRotatableBonds>  (558) 
3

>  <is_N_methyl>  (558) 
False

>  <is_a_methyl>  (558) 
False

>  <is_alpha_aa>  (558) 
False

>  <is_beta_aa>  (558) 
True

>  <is_S100_aa>  (558) 
False

>  <Murcko_SMILES>  (558) 
C1CCOC1

$$$$

     RDKit          2D

  9  8  0  0  0  0  0  0  0  0999 V2000
    5.1962    3.0000    0.0000 C   0  0  0  0  0  0  0  0  0  0  0  0
    3.8971    2.2500    0.0000 C   0  0  0  0  0  0  0  0  0  0  0  0
    2.5981    3.0000    0.0000 C   0  0  0  0  0  0  0  0  0  0  0  0
    3.8971    0.7500    0.0000 N   0  0  0  0  0  0  0  0  0  0  0  0
    2.5981   -0.0000    0.0000 C   0  0  0  0  0  0  0  0  0  0  0  0
    1.2990    0.7500    0.0000 C   0  0  0  0  0  0  0  0  0  0  0  0
    1.2990    2.2500    0.0000 O   0  0  0  0  0  0  0  0  0  0  0  0
    0.0000    0.0000    0.0000 R   0  0  0  0  0  1  0  0  0  2  0  0
    5.1962   -0.0000    0.0000 R   0  0  0  0  0  1  0  0  0  1  0  0
  1  2  1  0
  2  3  1  0
  2  4  1  0
  4  5  1  0
  5  6  1  0
  6  7  2  0
  6  8  1  0
  4  9  1  0
M  END
>  <id>  (559) 
e0aed978-f20e-47ea-8fc7-144389f8ab9e

>  <Version>  (559) 
0

>  <Alias>  (559) 
NValGly

>  <Type>  (559) 
amino_acid

>  <Smiles>  (559) 
CC(C)N(CC(=O)[*:2])[*:1]

>  <ProtectedSmiles>  (559) 
CC(C)N(CC(=O)O)C(=O)OCC1c2ccccc2-c2ccccc21

>  <CAS>  (559) 
498575-09-0

>  <User>  (559) 
emile.b

>  <StereoComment>  (559) 
as drawn

>  <Name>  (559) 
Fmoc-N(Val)-Gly-OH

>  <Code>  (559) 
NValGly

>  <AliasLowerCase>  (559) 
nvalgly

>  <LatestVersion>  (559) 
0.0

>  <createdAt>  (559) 
2026-01-14T11:34:35.422Z

>  <updatedAt>  (559) 
2026-01-14T11:34:35.422Z

>  <NumRotatableBonds>  (559) 
3

>  <is_N_methyl>  (559) 
False

>  <is_a_methyl>  (559) 
False

>  <is_alpha_aa>  (559) 
True

>  <is_beta_aa>  (559) 
False

>  <is_S100_aa>  (559) 
False

>  <Murcko_SMILES>  (559) 


$$$$

     RDKit          2D

 15 16  0  0  0  0  0  0  0  0999 V2000
    5.8875   -3.9505    0.0000 O   0  0  0  0  0  0  0  0  0  0  0  0
    4.6740   -4.8322    0.0000 C   0  0  0  0  0  0  0  0  0  0  0  0
    3.3037   -4.2221    0.0000 C   0  0  0  0  0  0  0  0  0  0  0  0
    2.9918   -2.7549    0.0000 C   0  0  0  0  0  0  0  0  0  0  0  0
    1.5000   -2.5981    0.0000 C   0  0  0  0  0  0  0  0  0  0  0  0
    0.7500   -1.2990    0.0000 C   0  0  0  0  0  0  0  0  0  0  0  0
    1.5000    0.0000    0.0000 C   0  0  0  0  0  0  0  0  0  0  0  0
    0.7500    1.2990    0.0000 C   0  0  0  0  0  0  0  0  0  0  0  0
   -0.7500    1.2990    0.0000 C   0  0  0  0  0  0  0  0  0  0  0  0
   -1.5000    0.0000    0.0000 C   0  0  0  0  0  0  0  0  0  0  0  0
   -0.7500   -1.2990    0.0000 C   0  0  0  0  0  0  0  0  0  0  0  0
    0.8899   -3.9684    0.0000 C   0  0  0  0  0  0  0  0  0  0  0  0
    2.0046   -4.9721    0.0000 N   0  0  0  0  0  0  0  0  0  0  0  0
    1.8478   -6.4639    0.0000 R   0  0  0  0  0  1  0  0  0  1  0  0
    4.8308   -6.3240    0.0000 R   0  0  0  0  0  1  0  0  0  2  0  0
  1  2  2  0
  3  2  1  1
  3  4  1  0
  4  5  1  0
  5  6  1  1
  6  7  2  0
  7  8  1  0
  8  9  2  0
  9 10  1  0
 10 11  2  0
  5 12  1  0
 12 13  1  0
 13 14  1  0
  2 15  1  0
 13  3  1  0
 11  6  1  0
M  END
>  <id>  (560) 
c8b107cd-1ce0-46ad-99a3-c70e5ff31299

>  <Version>  (560) 
0

>  <Alias>  (560) 
Pro(4R-Ph)

>  <Type>  (560) 
amino_acid

>  <Smiles>  (560) 
O=C([C@@H]1C[C@H](c2ccccc2)CN1[*:1])[*:2]

>  <ProtectedSmiles>  (560) 
O=C(O)[C@@H]1C[C@H](c2ccccc2)CN1C(=O)OCC1c2ccccc2-c2ccccc21

>  <CAS>  (560) 
1093651-96-7

>  <User>  (560) 
mischa.s

>  <StereoComment>  (560) 
as drawn

>  <Name>  (560) 
(2S,4R)-1-(((9H-Fluoren-9-yl)methoxy)carbonyl)-4-phenylpyrrolidine-2-carboxylic acid

>  <Code>  (560) 
Pro(4R-Ph)

>  <AliasLowerCase>  (560) 
pro(4r-ph)

>  <LatestVersion>  (560) 
0.0

>  <createdAt>  (560) 
2026-01-14T11:36:28.643Z

>  <updatedAt>  (560) 
2026-01-14T11:36:28.643Z

>  <NumRotatableBonds>  (560) 
2

>  <is_N_methyl>  (560) 
False

>  <is_a_methyl>  (560) 
False

>  <is_alpha_aa>  (560) 
True

>  <is_beta_aa>  (560) 
False

>  <is_S100_aa>  (560) 
False

>  <Murcko_SMILES>  (560) 
c1ccc([C@H]2CCNC2)cc1

$$$$

     RDKit          2D

 14 14  0  0  0  0  0  0  0  0999 V2000
    5.2500   -3.8971    0.0000 O   0  0  0  0  0  0  0  0  0  0  0  0
    6.0000   -2.5981    0.0000 C   0  0  0  0  0  0  0  0  0  0  0  0
    5.2500   -1.2990    0.0000 C   0  0  0  0  0  0  0  0  0  0  0  0
    3.7500   -1.2990    0.0000 C   0  0  0  0  0  0  0  0  0  0  0  0
    3.0000    0.0000    0.0000 C   0  0  0  0  0  0  0  0  0  0  0  0
    1.5000    0.0000    0.0000 C   0  0  0  0  0  0  0  0  0  0  0  0
    0.7500   -1.2990    0.0000 C   0  0  0  0  0  0  0  0  0  0  0  0
   -0.7500   -1.2990    0.0000 C   0  0  0  0  0  0  0  0  0  0  0  0
   -1.5000    0.0000    0.0000 C   0  0  0  0  0  0  0  0  0  0  0  0
   -0.7500    1.2990    0.0000 C   0  0  0  0  0  0  0  0  0  0  0  0
    0.7500    1.2990    0.0000 C   0  0  0  0  0  0  0  0  0  0  0  0
    6.0000    0.0000    0.0000 N   0  0  0  0  0  0  0  0  0  0  0  0
    7.5000    0.0000    0.0000 R   0  0  0  0  0  1  0  0  0  1  0  0
    7.5000   -2.5981    0.0000 R   0  0  0  0  0  1  0  0  0  2  0  0
  1  2  2  0
  2  3  1  0
  3  4  1  1
  4  5  1  0
  5  6  1  0
  6  7  2  0
  7  8  1  0
  8  9  2  0
  9 10  1  0
 10 11  2  0
  3 12  1  0
 12 13  1  0
  2 14  1  0
 11  6  1  0
M  END
>  <id>  (561) 
536d09e2-204c-4083-8d39-2a478f6853d6

>  <Version>  (561) 
0

>  <Alias>  (561) 
D-hPhe

>  <Type>  (561) 
amino_acid

>  <Smiles>  (561) 
O=C([C@@H](CCc1ccccc1)N[*:1])[*:2]

>  <ProtectedSmiles>  (561) 
O=C(N[C@H](CCc1ccccc1)C(=O)O)OCC1c2ccccc2-c2ccccc21

>  <CAS>  (561) 
135944-09-1

>  <User>  (561) 
sevan.h

>  <StereoComment>  (561) 
as drawn

>  <Name>  (561) 
Fmoc-D-homophenylalanine       

>  <Code>  (561) 
D-hPhe

>  <AliasLowerCase>  (561) 
d-hphe

>  <LatestVersion>  (561) 
0.0

>  <createdAt>  (561) 
2026-01-14T12:16:02.866Z

>  <updatedAt>  (561) 
2026-01-14T12:16:02.866Z

>  <NumRotatableBonds>  (561) 
5

>  <is_N_methyl>  (561) 
False

>  <is_a_methyl>  (561) 
False

>  <is_alpha_aa>  (561) 
True

>  <is_beta_aa>  (561) 
False

>  <is_S100_aa>  (561) 
False

>  <Murcko_SMILES>  (561) 
c1ccccc1

$$$$

     RDKit          2D

 12 12  0  0  0  0  0  0  0  0999 V2000
    3.9584   -0.7765    0.0000 O   0  0  0  0  0  0  0  0  0  0  0  0
    3.5702    0.6724    0.0000 C   0  0  0  0  0  0  0  0  0  0  0  0
    2.1213    1.0607    0.0000 C   0  0  0  0  0  0  0  0  0  0  0  0
    1.0607    0.0000    0.0000 C   0  0  0  0  0  0  0  0  0  0  0  0
    2.1213   -1.0607    0.0000 N   0  0  0  0  0  0  0  0  0  0  0  0
    1.7331   -2.5095    0.0000 R   0  0  0  0  0  1  0  0  0  1  0  0
   -0.0000   -1.0607    0.0000 C   0  0  0  0  0  0  0  0  0  0  0  0
   -1.0607    0.0000    0.0000 S   0  0  0  0  0  0  0  0  0  0  0  0
   -2.1213   -1.0607    0.0000 O   0  0  0  0  0  0  0  0  0  0  0  0
   -2.1213    1.0607    0.0000 O   0  0  0  0  0  0  0  0  0  0  0  0
    0.0000    1.0607    0.0000 C   0  0  0  0  0  0  0  0  0  0  0  0
    4.6309    1.7331    0.0000 R   0  0  0  0  0  1  0  0  0  2  0  0
  1  2  2  0
  2  3  1  0
  3  4  1  0
  4  5  1  0
  5  6  1  0
  4  7  1  0
  7  8  1  0
  8  9  2  0
  8 10  2  0
  8 11  1  0
  2 12  1  0
 11  4  1  0
M  END
>  <id>  (562) 
826e176f-a425-4c0f-8eb3-e5a7c4b55a38

>  <Version>  (562) 
0

>  <Alias>  (562) 
ThietanAA

>  <Type>  (562) 
amino_acid

>  <Smiles>  (562) 
O=C(CC1(N[*:1])CS(=O)(=O)C1)[*:2]

>  <ProtectedSmiles>  (562) 
O=C(O)CC1(NC(=O)OCC2c3ccccc3-c3ccccc32)CS(=O)(=O)C1

>  <CAS>  (562) 
2171820-04-3

>  <User>  (562) 
Sevan.habeshian@orbismedicines.com

>  <StereoComment>  (562) 
as drawn

>  <Name>  (562) 
N/A

>  <Code>  (562) 
ThietanAA

>  <AliasLowerCase>  (562) 
thietanaa

>  <LatestVersion>  (562) 
0.0

>  <createdAt>  (562) 
2026-02-13T09:56:36.467Z

>  <updatedAt>  (562) 
2026-02-13T09:56:36.467Z

>  <NumRotatableBonds>  (562) 
3

>  <is_N_methyl>  (562) 
False

>  <is_a_methyl>  (562) 
False

>  <is_alpha_aa>  (562) 
False

>  <is_beta_aa>  (562) 
True

>  <is_S100_aa>  (562) 
False

>  <Murcko_SMILES>  (562) 
O=S1(=O)CCC1

$$$$

     RDKit          2D

  8  7  0  0  0  0  0  0  0  0999 V2000
    5.1962    3.0000    0.0000 C   0  0  0  0  0  0  0  0  0  0  0  0
    3.8971    2.2500    0.0000 C   0  0  0  0  0  0  0  0  0  0  0  0
    3.8971    0.7500    0.0000 N   0  0  0  0  0  0  0  0  0  0  0  0
    2.5981   -0.0000    0.0000 C   0  0  0  0  0  0  0  0  0  0  0  0
    1.2990    0.7500    0.0000 C   0  0  0  0  0  0  0  0  0  0  0  0
    1.2990    2.2500    0.0000 O   0  0  0  0  0  0  0  0  0  0  0  0
    0.0000    0.0000    0.0000 R   0  0  0  0  0  1  0  0  0  2  0  0
    5.1962   -0.0000    0.0000 R   0  0  0  0  0  1  0  0  0  1  0  0
  1  2  1  0
  2  3  1  0
  3  4  1  0
  4  5  1  0
  5  6  2  0
  5  7  1  0
  3  8  1  0
M  END
>  <id>  (563) 
7812945c-e68b-48ad-b304-42f27385d6dd

>  <Version>  (563) 
0

>  <Alias>  (563) 
NEtGly

>  <Type>  (563) 
amino_acid

>  <Smiles>  (563) 
CCN(CC(=O)[*:2])[*:1]

>  <ProtectedSmiles>  (563) 
CCN(CC(=O)O)C(=O)OCC1c2ccccc2-c2ccccc21

>  <CAS>  (563) 
162545-29-1

>  <User>  (563) 
mischa.s

>  <StereoComment>  (563) 
as drawn

>  <Name>  (563) 
N-Fmoc-N-ethyl-glycine

>  <Code>  (563) 
NEtGly

>  <AliasLowerCase>  (563) 
netgly

>  <LatestVersion>  (563) 
0.0

>  <createdAt>  (563) 
2026-01-14T11:34:59.979Z

>  <updatedAt>  (563) 
2026-01-14T11:34:59.979Z

>  <NumRotatableBonds>  (563) 
3

>  <is_N_methyl>  (563) 
False

>  <is_a_methyl>  (563) 
False

>  <is_alpha_aa>  (563) 
True

>  <is_beta_aa>  (563) 
False

>  <is_S100_aa>  (563) 
False

>  <Murcko_SMILES>  (563) 


$$$$

     RDKit          2D

 10 10  0  0  0  0  0  0  0  0999 V2000
    2.5607   -2.5981    0.0000 O   0  0  0  0  0  0  0  0  0  0  0  0
    3.3107   -1.2990    0.0000 C   0  0  0  0  0  0  0  0  0  0  0  0
    2.5607    0.0000    0.0000 C   0  0  0  0  0  0  0  0  0  0  0  0
    3.3107    1.2990    0.0000 N   0  0  0  0  0  0  0  0  0  0  0  0
    4.8107    1.2990    0.0000 R   0  0  0  0  0  1  0  0  0  1  0  0
    1.0607    0.0000    0.0000 C   0  0  0  0  0  0  0  0  0  0  0  0
   -0.0000   -1.0607    0.0000 C   0  0  0  0  0  0  0  0  0  0  0  0
   -1.0607    0.0000    0.0000 C   0  0  0  0  0  0  0  0  0  0  0  0
    0.0000    1.0607    0.0000 C   0  0  0  0  0  0  0  0  0  0  0  0
    4.8107   -1.2990    0.0000 R   0  0  0  0  0  1  0  0  0  2  0  0
  1  2  2  0
  2  3  1  0
  3  4  1  1
  4  5  1  0
  3  6  1  0
  6  7  1  0
  7  8  1  0
  8  9  1  0
  2 10  1  0
  9  6  1  0
M  END
>  <id>  (564) 
218b5464-6ab4-4a8b-8824-215d857e783c

>  <Version>  (564) 
0

>  <Alias>  (564) 
D-Cbg

>  <Type>  (564) 
amino_acid

>  <Smiles>  (564) 
O=C([C@H](N[*:1])C1CCC1)[*:2]

>  <ProtectedSmiles>  (564) 
O=C(N[C@@H](C(=O)O)C1CCC1)OCC1c2ccccc2-c2ccccc21

>  <CAS>  (564) 
923012-41-3

>  <User>  (564) 
alice.granger@orbismedicines.com

>  <StereoComment>  (564) 
as drawn

>  <Name>  (564) 
(R)-alpha-(Fmoc-amino)cyclobutaneacetic acid

>  <Code>  (564) 
D-Cbg

>  <AliasLowerCase>  (564) 
d-cbg

>  <LatestVersion>  (564) 
0.0

>  <createdAt>  (564) 
2026-03-11T10:37:04.559Z

>  <updatedAt>  (564) 
2026-03-11T10:37:04.559Z

>  <NumRotatableBonds>  (564) 
3

>  <is_N_methyl>  (564) 
False

>  <is_a_methyl>  (564) 
False

>  <is_alpha_aa>  (564) 
True

>  <is_beta_aa>  (564) 
False

>  <is_S100_aa>  (564) 
False

>  <Murcko_SMILES>  (564) 
C1CCC1

$$$$

     RDKit          2D

 15 15  0  0  0  0  0  0  0  0999 V2000
    3.0000    0.0000    0.0000 C   0  0  0  0  0  0  0  0  0  0  0  0
    1.5000    0.0000    0.0000 C   0  0  0  0  0  0  0  0  0  0  0  0
    0.7500   -1.2990    0.0000 C   0  0  0  0  0  0  0  0  0  0  0  0
   -0.7500   -1.2990    0.0000 C   0  0  0  0  0  0  0  0  0  0  0  0
   -1.5000    0.0000    0.0000 C   0  0  0  0  0  0  0  0  0  0  0  0
   -0.7500    1.2990    0.0000 C   0  0  0  0  0  0  0  0  0  0  0  0
   -1.5000    2.5981    0.0000 C   0  0  0  0  0  0  0  0  0  0  0  0
    0.7500    1.2990    0.0000 C   0  0  0  0  0  0  0  0  0  0  0  0
    1.5000    2.5981    0.0000 C   0  0  0  0  0  0  0  0  0  0  0  0
    3.0000    2.5981    0.0000 C   0  0  0  0  0  0  0  0  0  0  0  0
    3.7500    1.2990    0.0000 N   0  0  0  0  0  0  0  0  0  0  0  0
    5.2500    1.2990    0.0000 R   0  0  0  0  0  1  0  0  0  1  0  0
    3.7500    3.8971    0.0000 C   0  0  0  0  0  0  0  0  0  0  0  0
    3.0000    5.1962    0.0000 O   0  0  0  0  0  0  0  0  0  0  0  0
    5.2500    3.8971    0.0000 R   0  0  0  0  0  1  0  0  0  2  0  0
  1  2  1  0
  2  3  2  0
  3  4  1  0
  4  5  2  0
  5  6  1  0
  6  7  1  0
  6  8  2  0
  8  9  1  0
 10  9  1  1
 10 11  1  0
 11 12  1  0
 10 13  1  0
 13 14  2  0
 13 15  1  0
  8  2  1  0
M  END
>  <id>  (565) 
833f98bf-6e56-4367-8768-ec1686608f69

>  <Version>  (565) 
0

>  <Alias>  (565) 
2,6-diMePhe

>  <Type>  (565) 
amino_acid

>  <Smiles>  (565) 
Cc1cccc(C)c1C[C@H](N[*:1])C(=O)[*:2]

>  <ProtectedSmiles>  (565) 
Cc1cccc(C)c1C[C@H](NC(=O)OCC1c2ccccc2-c2ccccc21)C(=O)O

>  <CAS>  (565) 
911813-85-9

>  <User>  (565) 
gontran.s

>  <StereoComment>  (565) 
as drawn

>  <Name>  (565) 
(2S)-3-(2,6-dimethylphenyl)-2-({[(9H-fluoren-9-yl)methoxy]carbonyl}amino)propanoic acid

>  <Code>  (565) 
2,6-diMePhe

>  <AliasLowerCase>  (565) 
2,6-dimephe

>  <LatestVersion>  (565) 
0.0

>  <createdAt>  (565) 
2026-01-14T11:38:34.460Z

>  <updatedAt>  (565) 
2026-01-14T11:38:34.460Z

>  <NumRotatableBonds>  (565) 
4

>  <is_N_methyl>  (565) 
False

>  <is_a_methyl>  (565) 
False

>  <is_alpha_aa>  (565) 
True

>  <is_beta_aa>  (565) 
False

>  <is_S100_aa>  (565) 
False

>  <Murcko_SMILES>  (565) 
c1ccccc1

$$$$

     RDKit          2D

  0  0  0  0  0  0  0  0  0  0999 V3000
M  V30 BEGIN CTAB
M  V30 COUNTS 18 19 0 0 0
M  V30 BEGIN ATOM
M  V30 1 N -4.066695 -3.652674 0.000000 0
M  V30 2 C -2.640110 -3.189148 0.000000 0
M  V30 3 C -1.213525 -2.725623 0.000000 0
M  V30 4 C -0.000000 -3.607301 0.000000 0
M  V30 5 N 1.213525 -2.725623 0.000000 0
M  V30 6 C 0.750000 -1.299038 0.000000 0
M  V30 7 C 1.500000 0.000000 0.000000 0
M  V30 8 C 0.750000 1.299038 0.000000 0
M  V30 9 C -0.750000 1.299038 0.000000 0
M  V30 10 C -1.500000 2.598076 0.000000 0
M  V30 11 C -0.750000 3.897114 0.000000 0
M  V30 12 N 0.750000 3.897114 0.000000 0
M  V30 13 "NOT [H]" 1.500000 5.196152 0.000000 1
M  V30 14 C -1.500000 5.196152 0.000000 0
M  V30 15 O -3.000000 5.196152 0.000000 0
M  V30 16 "NOT [H]" -0.750000 6.495191 0.000000 2
M  V30 17 C -1.500000 0.000000 0.000000 0
M  V30 18 C -0.750000 -1.299038 0.000000 0
M  V30 END ATOM
M  V30 BEGIN BOND
M  V30 1 3 1 2
M  V30 2 1 2 3
M  V30 3 2 3 4
M  V30 4 1 4 5
M  V30 5 1 5 6
M  V30 6 2 6 7
M  V30 7 1 7 8
M  V30 8 2 8 9
M  V30 9 1 9 10
M  V30 10 1 11 10 CFG=1
M  V30 11 1 11 12
M  V30 12 1 12 13
M  V30 13 1 11 14
M  V30 14 2 14 15
M  V30 15 1 14 16
M  V30 16 1 9 17
M  V30 17 2 17 18
M  V30 18 1 18 3
M  V30 19 1 18 6
M  V30 END BOND
M  V30 BEGIN COLLECTION
M  V30 MDLV30/STEREL1 ATOMS=(1 11)
M  V30 END COLLECTION
M  V30 END CTAB
M  END
>  <id>  (566) 
a443ec2d-4e52-460f-9726-a25bb004aff5

>  <Version>  (566) 
0

>  <Alias>  (566) 
(SorR)3-(a4083)Ala

>  <Type>  (566) 
amino_acid

>  <Smiles>  (566) 
N#Cc1c[nH]c2ccc(C[C@H](N[*:1])C(=O)[*:2])cc12 |o1:10|

>  <ProtectedSmiles>  (566) 
N#Cc1c[nH]c2ccc(C[C@H](NC(=O)OCC3c4ccccc4-c4ccccc43)C(=O)O)cc12 |o1:10|

>  <CAS>  (566) 
not existing

>  <User>  (566) 
cs@orbismedicines.com

>  <StereoComment>  (566) 
as drawn

>  <Name>  (566) 
(S or R) Fmoc-2-Amino-3-(3-cyano-1H-indole-5)propanoic acid

>  <Code>  (566) 
(SorR)3-(a4083)Ala

>  <AliasLowerCase>  (566) 
(sorr)3-(a4083)ala

>  <LatestVersion>  (566) 
3.0

>  <createdAt>  (566) 
2026-01-14T11:36:13.488Z

>  <updatedAt>  (566) 
2026-02-20T13:47:50.055Z

>  <NumRotatableBonds>  (566) 
4

>  <is_N_methyl>  (566) 
False

>  <is_a_methyl>  (566) 
False

>  <is_alpha_aa>  (566) 
True

>  <is_beta_aa>  (566) 
False

>  <is_S100_aa>  (566) 
False

>  <Murcko_SMILES>  (566) 
c1ccc2[nH]ccc2c1

$$$$

     RDKit          2D

  0  0  0  0  0  0  0  0  0  0999 V3000
M  V30 BEGIN CTAB
M  V30 COUNTS 18 19 0 0 0
M  V30 BEGIN ATOM
M  V30 1 N -4.066695 -3.652674 0.000000 0
M  V30 2 C -2.640110 -3.189148 0.000000 0
M  V30 3 C -1.213525 -2.725623 0.000000 0
M  V30 4 C -0.000000 -3.607301 0.000000 0
M  V30 5 N 1.213525 -2.725623 0.000000 0
M  V30 6 C 0.750000 -1.299038 0.000000 0
M  V30 7 C 1.500000 0.000000 0.000000 0
M  V30 8 C 0.750000 1.299038 0.000000 0
M  V30 9 C -0.750000 1.299038 0.000000 0
M  V30 10 C -1.500000 2.598076 0.000000 0
M  V30 11 C -0.750000 3.897114 0.000000 0
M  V30 12 N 0.750000 3.897114 0.000000 0
M  V30 13 "NOT [H]" 1.500000 5.196152 0.000000 1
M  V30 14 C -1.500000 5.196152 0.000000 0
M  V30 15 O -3.000000 5.196152 0.000000 0
M  V30 16 "NOT [H]" -0.750000 6.495191 0.000000 2
M  V30 17 C -1.500000 0.000000 0.000000 0
M  V30 18 C -0.750000 -1.299038 0.000000 0
M  V30 END ATOM
M  V30 BEGIN BOND
M  V30 1 3 1 2
M  V30 2 1 2 3
M  V30 3 2 3 4
M  V30 4 1 4 5
M  V30 5 1 5 6
M  V30 6 2 6 7
M  V30 7 1 7 8
M  V30 8 2 8 9
M  V30 9 1 9 10
M  V30 10 1 11 10 CFG=1
M  V30 11 1 11 12
M  V30 12 1 12 13
M  V30 13 1 11 14
M  V30 14 2 14 15
M  V30 15 1 14 16
M  V30 16 1 9 17
M  V30 17 2 17 18
M  V30 18 1 18 3
M  V30 19 1 18 6
M  V30 END BOND
M  V30 BEGIN COLLECTION
M  V30 MDLV30/STEREL1 ATOMS=(1 11)
M  V30 END COLLECTION
M  V30 END CTAB
M  END
>  <id>  (567) 
a443ec2d-4e52-460f-9726-a25bb004aff5

>  <Version>  (567) 
1

>  <Alias>  (567) 
(SorR)3-(a4083)Ala

>  <Type>  (567) 
amino_acid

>  <Smiles>  (567) 
N#Cc1c[nH]c2ccc(C[C@H](N[*:1])C(=O)[*:2])cc12 |o1:10|

>  <ProtectedSmiles>  (567) 
N#Cc1c[nH]c2ccc(C[C@H](NC(=O)OCC3c4ccccc4-c4ccccc43)C(=O)O)cc12 |o1:10|

>  <CAS>  (567) 
not existing

>  <User>  (567) 
mischa.s

>  <StereoComment>  (567) 
as drawn

>  <Name>  (567) 
(S or R) Fmoc-2-Amino-3-(3-cyano-1H-indole-5)propanoic acid

>  <Code>  (567) 
(SorR)3-(a4083)Ala

>  <AliasLowerCase>  (567) 
(sorr)3-(a4083)ala

>  <LatestVersion>  (567) 
nan

>  <createdAt>  (567) 
2026-01-14T11:36:13.488Z

>  <updatedAt>  (567) 
2026-01-14T11:36:13.488Z

>  <NumRotatableBonds>  (567) 
4

>  <is_N_methyl>  (567) 
False

>  <is_a_methyl>  (567) 
False

>  <is_alpha_aa>  (567) 
True

>  <is_beta_aa>  (567) 
False

>  <is_S100_aa>  (567) 
False

>  <Murcko_SMILES>  (567) 
c1ccc2[nH]ccc2c1

$$$$

     RDKit          2D

  0  0  0  0  0  0  0  0  0  0999 V3000
M  V30 BEGIN CTAB
M  V30 COUNTS 18 19 0 0 0
M  V30 BEGIN ATOM
M  V30 1 N -4.066695 -3.652674 0.000000 0
M  V30 2 C -2.640110 -3.189148 0.000000 0
M  V30 3 C -1.213525 -2.725623 0.000000 0
M  V30 4 C -0.000000 -3.607301 0.000000 0
M  V30 5 N 1.213525 -2.725623 0.000000 0
M  V30 6 C 0.750000 -1.299038 0.000000 0
M  V30 7 C 1.500000 0.000000 0.000000 0
M  V30 8 C 0.750000 1.299038 0.000000 0
M  V30 9 C -0.750000 1.299038 0.000000 0
M  V30 10 C -1.500000 2.598076 0.000000 0
M  V30 11 C -0.750000 3.897114 0.000000 0
M  V30 12 N 0.750000 3.897114 0.000000 0
M  V30 13 "NOT [H]" 1.500000 5.196152 0.000000 1
M  V30 14 C -1.500000 5.196152 0.000000 0
M  V30 15 O -3.000000 5.196152 0.000000 0
M  V30 16 "NOT [H]" -0.750000 6.495191 0.000000 2
M  V30 17 C -1.500000 0.000000 0.000000 0
M  V30 18 C -0.750000 -1.299038 0.000000 0
M  V30 END ATOM
M  V30 BEGIN BOND
M  V30 1 3 1 2
M  V30 2 1 2 3
M  V30 3 2 3 4
M  V30 4 1 4 5
M  V30 5 1 5 6
M  V30 6 2 6 7
M  V30 7 1 7 8
M  V30 8 2 8 9
M  V30 9 1 9 10
M  V30 10 1 11 10 CFG=1
M  V30 11 1 11 12
M  V30 12 1 12 13
M  V30 13 1 11 14
M  V30 14 2 14 15
M  V30 15 1 14 16
M  V30 16 1 9 17
M  V30 17 2 17 18
M  V30 18 1 18 3
M  V30 19 1 18 6
M  V30 END BOND
M  V30 BEGIN COLLECTION
M  V30 MDLV30/STEREL1 ATOMS=(1 11)
M  V30 END COLLECTION
M  V30 END CTAB
M  END
>  <id>  (568) 
a443ec2d-4e52-460f-9726-a25bb004aff5

>  <Version>  (568) 
2

>  <Alias>  (568) 
(SorR)3-(a4083)Ala

>  <Type>  (568) 
amino_acid

>  <Smiles>  (568) 
N#Cc1c[nH]c2ccc(C[C@H](N[*:1])C(=O)[*:2])cc12 |o1:10|

>  <ProtectedSmiles>  (568) 
N#Cc1c[nH]c2ccc(C[C@H](NC(=O)OCC3c4ccccc4-c4ccccc43)C(=O)O)cc12 |o1:10|

>  <CAS>  (568) 
not existing

>  <User>  (568) 
cs@orbismedicines.com

>  <StereoComment>  (568) 
as drawn

>  <Name>  (568) 
(S or R) Fmoc-2-Amino-3-(3-cyano-1H-indole-5)propanoic acid

>  <Code>  (568) 
(SorR)3-(a4083)Ala

>  <AliasLowerCase>  (568) 
(sorr)3-(a4083)ala

>  <LatestVersion>  (568) 
nan

>  <createdAt>  (568) 
2026-01-14T11:36:13.488Z

>  <updatedAt>  (568) 
2026-02-04T08:42:31.093Z

>  <NumRotatableBonds>  (568) 
4

>  <is_N_methyl>  (568) 
False

>  <is_a_methyl>  (568) 
False

>  <is_alpha_aa>  (568) 
True

>  <is_beta_aa>  (568) 
False

>  <is_S100_aa>  (568) 
False

>  <Murcko_SMILES>  (568) 
c1ccc2[nH]ccc2c1

$$$$

     RDKit          2D

  0  0  0  0  0  0  0  0  0  0999 V3000
M  V30 BEGIN CTAB
M  V30 COUNTS 18 19 0 0 0
M  V30 BEGIN ATOM
M  V30 1 N -4.066695 -3.652674 0.000000 0
M  V30 2 C -2.640110 -3.189148 0.000000 0
M  V30 3 C -1.213525 -2.725623 0.000000 0
M  V30 4 C -0.000000 -3.607301 0.000000 0
M  V30 5 N 1.213525 -2.725623 0.000000 0
M  V30 6 C 0.750000 -1.299038 0.000000 0
M  V30 7 C 1.500000 0.000000 0.000000 0
M  V30 8 C 0.750000 1.299038 0.000000 0
M  V30 9 C -0.750000 1.299038 0.000000 0
M  V30 10 C -1.500000 2.598076 0.000000 0
M  V30 11 C -0.750000 3.897114 0.000000 0
M  V30 12 N 0.750000 3.897114 0.000000 0
M  V30 13 "NOT [H]" 1.500000 5.196152 0.000000 1
M  V30 14 C -1.500000 5.196152 0.000000 0
M  V30 15 O -3.000000 5.196152 0.000000 0
M  V30 16 "NOT [H]" -0.750000 6.495191 0.000000 2
M  V30 17 C -1.500000 0.000000 0.000000 0
M  V30 18 C -0.750000 -1.299038 0.000000 0
M  V30 END ATOM
M  V30 BEGIN BOND
M  V30 1 3 1 2
M  V30 2 1 2 3
M  V30 3 2 3 4
M  V30 4 1 4 5
M  V30 5 1 5 6
M  V30 6 2 6 7
M  V30 7 1 7 8
M  V30 8 2 8 9
M  V30 9 1 9 10
M  V30 10 1 11 10 CFG=1
M  V30 11 1 11 12
M  V30 12 1 12 13
M  V30 13 1 11 14
M  V30 14 2 14 15
M  V30 15 1 14 16
M  V30 16 1 9 17
M  V30 17 2 17 18
M  V30 18 1 18 3
M  V30 19 1 18 6
M  V30 END BOND
M  V30 BEGIN COLLECTION
M  V30 MDLV30/STEREL1 ATOMS=(1 11)
M  V30 END COLLECTION
M  V30 END CTAB
M  END
>  <id>  (569) 
a443ec2d-4e52-460f-9726-a25bb004aff5

>  <Version>  (569) 
3

>  <Alias>  (569) 
(SorR)3-(a4083)Ala

>  <Type>  (569) 
amino_acid

>  <Smiles>  (569) 
N#Cc1c[nH]c2ccc(C[C@H](N[*:1])C(=O)[*:2])cc12 |o1:10|

>  <ProtectedSmiles>  (569) 
N#Cc1c[nH]c2ccc(C[C@H](NC(=O)OCC3c4ccccc4-c4ccccc43)C(=O)O)cc12 |o1:10|

>  <CAS>  (569) 
not existing

>  <User>  (569) 
cs@orbismedicines.com

>  <StereoComment>  (569) 
as drawn

>  <Name>  (569) 
(S or R) Fmoc-2-Amino-3-(3-cyano-1H-indole-5)propanoic acid

>  <Code>  (569) 
(SorR)3-(a4083)Ala

>  <AliasLowerCase>  (569) 
(sorr)3-(a4083)ala

>  <LatestVersion>  (569) 
nan

>  <createdAt>  (569) 
2026-01-14T11:36:13.488Z

>  <updatedAt>  (569) 
2026-02-20T13:47:31.802Z

>  <NumRotatableBonds>  (569) 
4

>  <is_N_methyl>  (569) 
False

>  <is_a_methyl>  (569) 
False

>  <is_alpha_aa>  (569) 
True

>  <is_beta_aa>  (569) 
False

>  <is_S100_aa>  (569) 
False

>  <Murcko_SMILES>  (569) 
c1ccc2[nH]ccc2c1

$$$$

     RDKit          2D

 15 16  0  0  0  0  0  0  0  0999 V2000
    3.7500    1.2990    0.0000 O   0  0  0  0  0  0  0  0  0  0  0  0
    3.0000    0.0000    0.0000 C   0  0  0  0  0  0  0  0  0  0  0  0
    1.5000    0.0000    0.0000 C   0  0  0  0  0  0  0  0  0  0  0  0
    0.7500   -1.2990    0.0000 C   0  0  0  0  0  0  0  0  0  0  0  0
   -0.7500   -1.2990    0.0000 N   0  0  0  0  0  0  0  0  0  0  0  0
   -1.5000    0.0000    0.0000 C   0  0  0  0  0  0  0  0  0  0  0  0
   -3.0000    0.0000    0.0000 C   0  0  0  0  0  0  0  0  0  0  0  0
   -3.8817   -1.2135    0.0000 C   0  0  0  0  0  0  0  0  0  0  0  0
   -5.3083   -0.7500    0.0000 C   0  0  0  0  0  0  0  0  0  0  0  0
   -5.3083    0.7500    0.0000 C   0  0  0  0  0  0  0  0  0  0  0  0
   -3.8817    1.2135    0.0000 N   0  0  0  0  0  0  0  0  0  0  0  0
   -3.4182    2.6401    0.0000 R   0  0  0  0  0  1  0  0  0  1  0  0
   -0.7500    1.2990    0.0000 N   0  0  0  0  0  0  0  0  0  0  0  0
    0.7500    1.2990    0.0000 C   0  0  0  0  0  0  0  0  0  0  0  0
    3.7500   -1.2990    0.0000 R   0  0  0  0  0  1  0  0  0  2  0  0
  1  2  2  0
  2  3  1  0
  3  4  2  0
  4  5  1  0
  5  6  2  0
  6  7  1  0
  7  8  1  0
  8  9  1  0
  9 10  1  0
 10 11  1  0
 11 12  1  0
  6 13  1  0
 13 14  2  0
  2 15  1  0
 14  3  1  0
 11  7  1  0
M  END
>  <id>  (570) 
a24e13c4-c1f6-433b-b03b-da9730339997

>  <Version>  (570) 
0

>  <Alias>  (570) 
PyrPyrimidCA

>  <Type>  (570) 
amino_acid

>  <Smiles>  (570) 
O=C(c1cnc(C2CCCN2[*:1])nc1)[*:2]

>  <ProtectedSmiles>  (570) 
O=C(O)c1cnc(C2CCCN2C(=O)OCC2c3ccccc3-c3ccccc32)nc1

>  <CAS>  (570) 
2155855-74-4

>  <User>  (570) 
Sevan.habeshian@orbismedicines.com

>  <StereoComment>  (570) 
as drawn

>  <Name>  (570) 
N/A

>  <Code>  (570) 
PyrPyrimidCA

>  <AliasLowerCase>  (570) 
pyrpyrimidca

>  <LatestVersion>  (570) 
0.0

>  <createdAt>  (570) 
2026-02-13T09:56:35.527Z

>  <updatedAt>  (570) 
2026-02-13T09:56:35.527Z

>  <NumRotatableBonds>  (570) 
2

>  <is_N_methyl>  (570) 
False

>  <is_a_methyl>  (570) 
False

>  <is_alpha_aa>  (570) 
False

>  <is_beta_aa>  (570) 
False

>  <is_S100_aa>  (570) 
False

>  <Murcko_SMILES>  (570) 
c1cnc(C2CCCN2)nc1

$$$$

     RDKit          2D

 13 13  0  0  0  0  0  0  0  0999 V2000
    2.6491    0.9642    0.0000 C   0  0  0  0  0  0  0  0  0  0  0  0
    1.5000    0.0000    0.0000 C   0  0  0  0  0  0  0  0  0  0  0  0
    2.6491   -0.9642    0.0000 C   0  0  0  0  0  0  0  0  0  0  0  0
    4.0586   -0.4512    0.0000 N   0  0  0  0  0  0  0  0  0  0  0  0
    5.2077   -1.4153    0.0000 R   0  0  0  0  0  1  0  0  0  1  0  0
    2.3886   -2.4414    0.0000 C   0  0  0  0  0  0  0  0  0  0  0  0
    0.9791   -2.9544    0.0000 O   0  0  0  0  0  0  0  0  0  0  0  0
    3.5377   -3.4056    0.0000 R   0  0  0  0  0  1  0  0  0  2  0  0
    0.7500   -1.2990    0.0000 C   0  0  0  0  0  0  0  0  0  0  0  0
   -0.7500   -1.2990    0.0000 C   0  0  0  0  0  0  0  0  0  0  0  0
   -1.5000    0.0000    0.0000 C   0  0  0  0  0  0  0  0  0  0  0  0
   -0.7500    1.2990    0.0000 C   0  0  0  0  0  0  0  0  0  0  0  0
    0.7500    1.2990    0.0000 C   0  0  0  0  0  0  0  0  0  0  0  0
  1  2  1  0
  2  3  1  0
  3  4  1  0
  4  5  1  0
  3  6  1  0
  6  7  2  0
  6  8  1  0
  2  9  1  0
  9 10  1  0
 10 11  1  0
 11 12  1  0
 12 13  1  0
 13  2  1  0
M  END
>  <id>  (571) 
46fc27c1-dcd7-453b-b0ec-0a979c70b41e

>  <Version>  (571) 
0

>  <Alias>  (571) 
(1Me)-rac-Chg

>  <Type>  (571) 
amino_acid

>  <Smiles>  (571) 
CC1(C(N[*:1])C(=O)[*:2])CCCCC1

>  <ProtectedSmiles>  (571) 
CC1(C(NC(=O)OCC2c3ccccc3-c3ccccc32)C(=O)O)CCCCC1

>  <CAS>  (571) 
2003985-34-8

>  <User>  (571) 
gontran.s

>  <StereoComment>  (571) 
as drawn

>  <Name>  (571) 
2-(Fmoc)-2-(1-methylcyclohexyl)acetic acid

>  <Code>  (571) 
(1Me)-rac-Chg

>  <AliasLowerCase>  (571) 
(1me)-rac-chg

>  <LatestVersion>  (571) 
0.0

>  <createdAt>  (571) 
2026-01-14T11:36:58.230Z

>  <updatedAt>  (571) 
2026-01-14T11:36:58.230Z

>  <NumRotatableBonds>  (571) 
3

>  <is_N_methyl>  (571) 
False

>  <is_a_methyl>  (571) 
False

>  <is_alpha_aa>  (571) 
True

>  <is_beta_aa>  (571) 
False

>  <is_S100_aa>  (571) 
False

>  <Murcko_SMILES>  (571) 
C1CCCCC1

$$$$

     RDKit          2D

 12 13  0  0  0  0  0  0  0  0999 V2000
    3.5260    1.2990    0.0000 O   0  0  0  0  0  0  0  0  0  0  0  0
    2.7760    0.0000    0.0000 C   0  0  0  0  0  0  0  0  0  0  0  0
    1.2760    0.0000    0.0000 C   0  0  0  0  0  0  0  0  0  0  0  0
    0.3943    1.2135    0.0000 C   0  0  0  0  0  0  0  0  0  0  0  0
   -1.0323    0.7500    0.0000 O   0  0  0  0  0  0  0  0  0  0  0  0
   -1.0323   -0.7500    0.0000 C   0  0  0  0  0  0  0  0  0  0  0  0
    0.3943   -1.2135    0.0000 C   0  0  0  0  0  0  0  0  0  0  0  0
   -2.5138   -0.5153    0.0000 C   0  0  0  0  0  0  0  0  0  0  0  0
   -2.7485   -1.9969    0.0000 N   0  0  0  0  0  0  0  0  0  0  0  0
   -3.9620   -2.8786    0.0000 R   0  0  0  0  0  1  0  0  0  1  0  0
   -1.2669   -2.2315    0.0000 C   0  0  0  0  0  0  0  0  0  0  0  0
    3.5260   -1.2990    0.0000 R   0  0  0  0  0  1  0  0  0  2  0  0
  1  2  2  0
  2  3  1  0
  3  4  1  0
  4  5  1  0
  5  6  1  0
  6  7  1  0
  6  8  1  0
  8  9  1  0
  9 10  1  0
  9 11  1  0
  2 12  1  0
  7  3  1  0
 11  6  1  0
M  END
>  <id>  (572) 
4a61f7ad-73e3-4c3e-8e0d-5fc71e2f8b18

>  <Version>  (572) 
0

>  <Alias>  (572) 
OxaSpiroOctCA

>  <Type>  (572) 
amino_acid

>  <Smiles>  (572) 
O=C(C1COC2(C1)CN([*:1])C2)[*:2]

>  <ProtectedSmiles>  (572) 
O=C(O)C1COC2(C1)CN(C(=O)OCC1c3ccccc3-c3ccccc31)C2

>  <CAS>  (572) 
2219378-78-4

>  <User>  (572) 
Sevan.habeshian@orbismedicines.com

>  <StereoComment>  (572) 
as drawn

>  <Name>  (572) 
N/A

>  <Code>  (572) 
OxaSpiroOctCA

>  <AliasLowerCase>  (572) 
oxaspirooctca

>  <LatestVersion>  (572) 
0.0

>  <createdAt>  (572) 
2026-02-13T09:56:36.341Z

>  <updatedAt>  (572) 
2026-02-13T09:56:36.341Z

>  <NumRotatableBonds>  (572) 
1

>  <is_N_methyl>  (572) 
False

>  <is_a_methyl>  (572) 
False

>  <is_alpha_aa>  (572) 
False

>  <is_beta_aa>  (572) 
False

>  <is_S100_aa>  (572) 
False

>  <Murcko_SMILES>  (572) 
C1COC2(C1)CNC2

$$$$

     RDKit          2D

 13 13  0  0  0  0  0  0  0  0999 V2000
    2.7760    0.0000    0.0000 C   0  0  0  0  0  0  0  0  0  0  0  0
    1.2760    0.0000    0.0000 C   0  0  0  0  0  0  0  0  0  0  0  0
    0.3943    1.2135    0.0000 C   0  0  0  0  0  0  0  0  0  0  0  0
   -1.0323    0.7500    0.0000 S   0  0  0  0  0  0  0  0  0  0  0  0
   -1.0323   -0.7500    0.0000 C   0  0  0  0  0  0  0  0  0  0  0  0
   -2.2458   -1.6317    0.0000 C   0  0  0  0  0  0  0  0  0  0  0  0
   -3.6161   -1.0216    0.0000 C   0  0  0  0  0  0  0  0  0  0  0  0
   -3.7729    0.4702    0.0000 N   0  0  0  0  0  0  0  0  0  0  0  0
   -5.1432    1.0803    0.0000 R   0  0  0  0  0  1  0  0  0  1  0  0
   -4.8297   -1.9033    0.0000 C   0  0  0  0  0  0  0  0  0  0  0  0
   -4.6729   -3.3950    0.0000 O   0  0  0  0  0  0  0  0  0  0  0  0
   -6.2000   -1.2931    0.0000 R   0  0  0  0  0  1  0  0  0  2  0  0
    0.3943   -1.2135    0.0000 N   0  0  0  0  0  0  0  0  0  0  0  0
  1  2  1  0
  2  3  2  0
  3  4  1  0
  4  5  1  0
  5  6  1  0
  6  7  1  0
  7  8  1  0
  8  9  1  0
  7 10  1  0
 10 11  2  0
 10 12  1  0
  5 13  2  0
 13  2  1  0
M  END
>  <id>  (573) 
bb041b6c-c143-46a4-9380-103d41f7b9f7

>  <Version>  (573) 
0

>  <Alias>  (573) 
rac-2Tza4Me

>  <Type>  (573) 
amino_acid

>  <Smiles>  (573) 
Cc1csc(CC(N[*:1])C(=O)[*:2])n1

>  <ProtectedSmiles>  (573) 
Cc1csc(CC(NC(=O)OCC2c3ccccc3-c3ccccc32)C(=O)O)n1

>  <CAS>  (573) 
1379844-17-3

>  <User>  (573) 
Sevan.habeshian@orbismedicines.com

>  <StereoComment>  (573) 
as drawn

>  <Name>  (573) 
N/A

>  <Code>  (573) 
rac-2Tza4Me

>  <AliasLowerCase>  (573) 
rac-2tza4me

>  <LatestVersion>  (573) 
0.0

>  <createdAt>  (573) 
2026-02-13T09:56:35.474Z

>  <updatedAt>  (573) 
2026-02-13T09:56:35.474Z

>  <NumRotatableBonds>  (573) 
4

>  <is_N_methyl>  (573) 
False

>  <is_a_methyl>  (573) 
False

>  <is_alpha_aa>  (573) 
True

>  <is_beta_aa>  (573) 
False

>  <is_S100_aa>  (573) 
False

>  <Murcko_SMILES>  (573) 
c1cscn1

$$$$

     RDKit          2D

  9  9  0  0  0  0  0  0  0  0999 V2000
    3.5260    1.2990    0.0000 O   0  0  0  0  0  0  0  0  0  0  0  0
    2.7760    0.0000    0.0000 C   0  0  0  0  0  0  0  0  0  0  0  0
    1.2760    0.0000    0.0000 C   0  0  0  0  0  0  0  0  0  0  0  0
    0.3943    1.2135    0.0000 C   0  0  0  0  0  0  0  0  0  0  0  0
   -1.0323    0.7500    0.0000 C   0  0  0  0  0  0  0  0  0  0  0  0
   -1.0323   -0.7500    0.0000 N   0  0  0  0  0  0  0  0  0  0  0  0
   -2.2458   -1.6317    0.0000 R   0  0  0  0  0  1  0  0  0  1  0  0
    0.3943   -1.2135    0.0000 C   0  0  0  0  0  0  0  0  0  0  0  0
    3.5260   -1.2990    0.0000 R   0  0  0  0  0  1  0  0  0  2  0  0
  1  2  2  0
  2  3  1  0
  3  4  1  0
  4  5  1  0
  5  6  1  0
  6  7  1  0
  6  8  1  0
  2  9  1  0
  8  3  1  0
M  END
>  <id>  (574) 
0d9f1130-30a2-47ed-93e1-702d1b8411df

>  <Version>  (574) 
0

>  <Alias>  (574) 
rac-1Pyr

>  <Type>  (574) 
amino_acid

>  <Smiles>  (574) 
O=C(C1CCN([*:1])C1)[*:2]

>  <ProtectedSmiles>  (574) 
O=C(O)C1CCN(C(=O)OCC2c3ccccc3-c3ccccc32)C1

>  <CAS>  (574) 
885951-89-3

>  <User>  (574) 
Sevan.habeshian@orbismedicines.com

>  <StereoComment>  (574) 
as drawn

>  <Name>  (574) 
N/A

>  <Code>  (574) 
rac-1Pyr

>  <AliasLowerCase>  (574) 
rac-1pyr

>  <LatestVersion>  (574) 
0.0

>  <createdAt>  (574) 
2026-02-13T09:56:35.484Z

>  <updatedAt>  (574) 
2026-02-13T09:56:35.484Z

>  <NumRotatableBonds>  (574) 
1

>  <is_N_methyl>  (574) 
False

>  <is_a_methyl>  (574) 
False

>  <is_alpha_aa>  (574) 
False

>  <is_beta_aa>  (574) 
True

>  <is_S100_aa>  (574) 
False

>  <Murcko_SMILES>  (574) 
C1CCNC1

$$$$

     RDKit          2D

 10  9  0  0  0  0  0  0  0  0999 V2000
    5.1962    3.0000    0.0000 C   0  0  0  0  0  0  0  0  0  0  0  0
    3.8971    2.2500    0.0000 C   0  0  0  0  0  0  0  0  0  0  0  0
    3.8971    0.7500    0.0000 C   0  0  0  0  0  0  0  0  0  0  0  0
    5.1962   -0.0000    0.0000 C   0  0  0  0  0  0  0  0  0  0  0  0
    2.5981   -0.0000    0.0000 C   0  0  0  0  0  0  0  0  0  0  0  0
    1.2990    0.7500    0.0000 N   0  0  0  0  0  0  0  0  0  0  0  0
    0.0000    0.0000    0.0000 R   0  0  0  0  0  1  0  0  0  1  0  0
    2.5981   -1.5000    0.0000 C   0  0  0  0  0  0  0  0  0  0  0  0
    1.2990   -2.2500    0.0000 O   0  0  0  0  0  0  0  0  0  0  0  0
    3.8971   -2.2500    0.0000 R   0  0  0  0  0  1  0  0  0  2  0  0
  1  2  1  0
  2  3  1  0
  3  4  1  1
  3  5  1  0
  5  6  1  6
  6  7  1  0
  5  8  1  0
  8  9  2  0
  8 10  1  0
M  END
>  <id>  (575) 
abb400d0-c711-4bfa-9c58-7922fd8f7a9d

>  <Version>  (575) 
0

>  <Alias>  (575) 
D-Ile

>  <Type>  (575) 
amino_acid

>  <Smiles>  (575) 
CC[C@@H](C)[C@@H](N[*:1])C(=O)[*:2]

>  <ProtectedSmiles>  (575) 
CC[C@@H](C)[C@@H](NC(=O)OCC1c2ccccc2-c2ccccc21)C(=O)O

>  <CAS>  (575) 
143688-83-9

>  <User>  (575) 
mischa.s

>  <StereoComment>  (575) 
as drawn

>  <Name>  (575) 
Fmoc-D-Isoleucine

>  <Code>  (575) 
D-Ile

>  <AliasLowerCase>  (575) 
d-ile

>  <LatestVersion>  (575) 
0.0

>  <createdAt>  (575) 
2026-01-14T11:36:21.046Z

>  <updatedAt>  (575) 
2026-01-14T11:36:21.046Z

>  <NumRotatableBonds>  (575) 
4

>  <is_N_methyl>  (575) 
False

>  <is_a_methyl>  (575) 
False

>  <is_alpha_aa>  (575) 
True

>  <is_beta_aa>  (575) 
False

>  <is_S100_aa>  (575) 
False

>  <Murcko_SMILES>  (575) 


$$$$

     RDKit          2D

  9  9  0  0  0  0  0  0  0  0999 V2000
    3.5260    1.2990    0.0000 O   0  0  0  0  0  0  0  0  0  0  0  0
    2.7760    0.0000    0.0000 C   0  0  0  0  0  0  0  0  0  0  0  0
    1.2760    0.0000    0.0000 C   0  0  0  0  0  0  0  0  0  0  0  0
    0.3943    1.2135    0.0000 C   0  0  0  0  0  0  0  0  0  0  0  0
   -1.0323    0.7500    0.0000 C   0  0  0  0  0  0  0  0  0  0  0  0
   -1.0323   -0.7500    0.0000 C   0  0  0  0  0  0  0  0  0  0  0  0
    0.3943   -1.2135    0.0000 N   0  0  0  0  0  0  0  0  0  0  0  0
    0.8578   -2.6401    0.0000 R   0  0  0  0  0  1  0  0  0  1  0  0
    3.5260   -1.2990    0.0000 R   0  0  0  0  0  1  0  0  0  2  0  0
  1  2  2  0
  3  2  1  1
  3  4  1  0
  4  5  2  0
  5  6  1  0
  6  7  1  0
  7  8  1  0
  2  9  1  0
  7  3  1  0
M  END
>  <id>  (576) 
8c774d55-6b02-4a64-a6eb-b674ad2b1e03

>  <Version>  (576) 
0

>  <Alias>  (576) 
2_5DHPro

>  <Type>  (576) 
amino_acid

>  <Smiles>  (576) 
O=C([C@@H]1C=CCN1[*:1])[*:2]

>  <ProtectedSmiles>  (576) 
O=C(O)[C@@H]1C=CCN1C(=O)OCC1c2ccccc2-c2ccccc21

>  <CAS>  (576) 
135837-63-7

>  <User>  (576) 
mischa.s

>  <StereoComment>  (576) 
as drawn

>  <Name>  (576) 
S)-1-(((9H-Fluoren-9-yl)methoxy)carbonyl)-2,5-dihydro-1H-pyrrole-2-carboxylic acid

>  <Code>  (576) 
2_5DHPro

>  <AliasLowerCase>  (576) 
2_5dhpro

>  <LatestVersion>  (576) 
0.0

>  <createdAt>  (576) 
2026-01-14T11:36:38.325Z

>  <updatedAt>  (576) 
2026-01-14T11:36:38.325Z

>  <NumRotatableBonds>  (576) 
1

>  <is_N_methyl>  (576) 
False

>  <is_a_methyl>  (576) 
False

>  <is_alpha_aa>  (576) 
True

>  <is_beta_aa>  (576) 
False

>  <is_S100_aa>  (576) 
False

>  <Murcko_SMILES>  (576) 
C1=CCNC1

$$$$

     RDKit          2D

  9  8  0  0  0  0  0  0  0  0999 V2000
    1.2990   -3.7500    0.0000 C   0  0  0  0  0  0  0  0  0  0  0  0
    1.2990   -2.2500    0.0000 C   0  0  0  0  0  0  0  0  0  0  0  0
    2.5981   -1.5000    0.0000 N   0  0  0  0  0  0  0  0  0  0  0  0
    2.5981   -0.0000    0.0000 C   0  0  0  0  0  0  0  0  0  0  0  0
    3.8971    0.7500    0.0000 C   0  0  0  0  0  0  0  0  0  0  0  0
    1.2990    0.7500    0.0000 C   0  0  0  0  0  0  0  0  0  0  0  0
    1.2990    2.2500    0.0000 O   0  0  0  0  0  0  0  0  0  0  0  0
    0.0000    0.0000    0.0000 R   0  0  0  0  0  1  0  0  0  2  0  0
    3.8971   -2.2500    0.0000 R   0  0  0  0  0  1  0  0  0  1  0  0
  1  2  1  0
  2  3  1  0
  3  4  1  0
  4  5  1  0
  4  6  1  0
  6  7  2  0
  6  8  1  0
  3  9  1  0
M  END
>  <id>  (577) 
a30760e8-2619-4d3c-a244-e497a1c9f59e

>  <Version>  (577) 
0

>  <Alias>  (577) 
rac-NEt-Ala

>  <Type>  (577) 
amino_acid

>  <Smiles>  (577) 
CCN(C(C)C(=O)[*:2])[*:1]

>  <ProtectedSmiles>  (577) 
CCN(C(=O)OCC1c2ccccc2-c2ccccc21)C(C)C(=O)O

>  <CAS>  (577) 
2642729-46-0

>  <User>  (577) 
Sevan.habeshian@orbismedicines.com

>  <StereoComment>  (577) 
as drawn

>  <Name>  (577) 
N/A

>  <Code>  (577) 
rac-NEt-Ala

>  <AliasLowerCase>  (577) 
rac-net-ala

>  <LatestVersion>  (577) 
0.0

>  <createdAt>  (577) 
2026-02-13T09:56:36.333Z

>  <updatedAt>  (577) 
2026-02-13T09:56:36.333Z

>  <NumRotatableBonds>  (577) 
3

>  <is_N_methyl>  (577) 
False

>  <is_a_methyl>  (577) 
False

>  <is_alpha_aa>  (577) 
True

>  <is_beta_aa>  (577) 
False

>  <is_S100_aa>  (577) 
False

>  <Murcko_SMILES>  (577) 


$$$$

     RDKit          2D

 10  9  0  0  0  0  0  0  0  0999 V2000
    6.4952    0.7500    0.0000 N   0  0  0  0  0  0  0  0  0  0  0  0
    5.1962   -0.0000    0.0000 C   0  0  0  0  0  0  0  0  0  0  0  0
    5.1962   -1.5000    0.0000 O   0  0  0  0  0  0  0  0  0  0  0  0
    3.8971    0.7500    0.0000 C   0  0  0  0  0  0  0  0  0  0  0  0
    2.5981   -0.0000    0.0000 C   0  0  0  0  0  0  0  0  0  0  0  0
    1.2990    0.7500    0.0000 C   0  0  0  0  0  0  0  0  0  0  0  0
    1.2990    2.2500    0.0000 O   0  0  0  0  0  0  0  0  0  0  0  0
    0.0000    0.0000    0.0000 R   0  0  0  0  0  1  0  0  0  2  0  0
    3.8971    2.2500    0.0000 N   0  0  0  0  0  0  0  0  0  0  0  0
    5.1962    3.0000    0.0000 R   0  0  0  0  0  1  0  0  0  1  0  0
  1  2  1  0
  2  3  2  0
  2  4  1  0
  4  5  1  6
  5  6  1  0
  6  7  2  0
  6  8  1  0
  4  9  1  0
  9 10  1  0
M  END
>  <id>  (578) 
25a9da48-f229-4232-8ade-2f4d532a96e1

>  <Version>  (578) 
0

>  <Alias>  (578) 
L-Asn-NH2

>  <Type>  (578) 
amino_acid

>  <Smiles>  (578) 
NC(=O)[C@H](CC(=O)[*:2])N[*:1]

>  <ProtectedSmiles>  (578) 
NC(=O)[C@H](CC(=O)O)NC(=O)OCC1c2ccccc2-c2ccccc21

>  <CAS>  (578) 
200335-40-6

>  <User>  (578) 
sevan.h

>  <StereoComment>  (578) 
as drawn

>  <Name>  (578) 
 Fmoc-Asp-NH2

>  <Code>  (578) 
L-Asn-NH2

>  <AliasLowerCase>  (578) 
l-asn-nh2

>  <LatestVersion>  (578) 
0.0

>  <createdAt>  (578) 
2026-01-14T11:38:22.643Z

>  <updatedAt>  (578) 
2026-01-14T11:38:22.643Z

>  <NumRotatableBonds>  (578) 
4

>  <is_N_methyl>  (578) 
False

>  <is_a_methyl>  (578) 
False

>  <is_alpha_aa>  (578) 
False

>  <is_beta_aa>  (578) 
True

>  <is_S100_aa>  (578) 
False

>  <Murcko_SMILES>  (578) 


$$$$

     RDKit          2D

  8  8  0  0  0  0  0  0  0  0999 V2000
    3.3107    1.2990    0.0000 O   0  0  0  0  0  0  0  0  0  0  0  0
    2.5607    0.0000    0.0000 C   0  0  0  0  0  0  0  0  0  0  0  0
    1.0607    0.0000    0.0000 C   0  0  0  0  0  0  0  0  0  0  0  0
   -0.0000   -1.0607    0.0000 C   0  0  0  0  0  0  0  0  0  0  0  0
   -1.0607    0.0000    0.0000 N   0  0  0  0  0  0  0  0  0  0  0  0
   -2.5607    0.0000    0.0000 R   0  0  0  0  0  1  0  0  0  1  0  0
    0.0000    1.0607    0.0000 C   0  0  0  0  0  0  0  0  0  0  0  0
    3.3107   -1.2990    0.0000 R   0  0  0  0  0  1  0  0  0  2  0  0
  1  2  2  0
  2  3  1  0
  3  4  1  0
  4  5  1  0
  5  6  1  0
  5  7  1  0
  2  8  1  0
  7  3  1  0
M  END
>  <id>  (579) 
04901f76-f0b0-4608-b59a-5c3a34b728fc

>  <Version>  (579) 
0

>  <Alias>  (579) 
3Azet

>  <Type>  (579) 
amino_acid

>  <Smiles>  (579) 
O=C(C1CN([*:1])C1)[*:2]

>  <ProtectedSmiles>  (579) 
O=C(O)C1CN(C(=O)OCC2c3ccccc3-c3ccccc32)C1

>  <CAS>  (579) 
193693-64-0

>  <User>  (579) 
sevan.h

>  <StereoComment>  (579) 
as drawn

>  <Name>  (579) 
Fmoc-azetidine-3-carboxylic acid

>  <Code>  (579) 
3Azet

>  <AliasLowerCase>  (579) 
3azet

>  <LatestVersion>  (579) 
0.0

>  <createdAt>  (579) 
2026-01-14T12:16:39.988Z

>  <updatedAt>  (579) 
2026-01-14T12:16:39.988Z

>  <NumRotatableBonds>  (579) 
1

>  <is_N_methyl>  (579) 
False

>  <is_a_methyl>  (579) 
False

>  <is_alpha_aa>  (579) 
False

>  <is_beta_aa>  (579) 
True

>  <is_S100_aa>  (579) 
False

>  <Murcko_SMILES>  (579) 
C1CNC1

$$$$

     RDKit          2D

 13 13  0  0  0  0  0  0  0  0999 V2000
    6.0000    0.0000    0.0000 O   0  0  0  0  0  0  0  0  0  0  0  0
    5.2500   -1.2990    0.0000 C   0  0  0  0  0  0  0  0  0  0  0  0
    3.7500   -1.2990    0.0000 C   0  0  0  0  0  0  0  0  0  0  0  0
    3.0000    0.0000    0.0000 C   0  0  0  0  0  0  0  0  0  0  0  0
    1.5000    0.0000    0.0000 C   0  0  0  0  0  0  0  0  0  0  0  0
    0.7500   -1.2990    0.0000 C   0  0  0  0  0  0  0  0  0  0  0  0
   -0.7500   -1.2990    0.0000 C   0  0  0  0  0  0  0  0  0  0  0  0
   -1.5000    0.0000    0.0000 C   0  0  0  0  0  0  0  0  0  0  0  0
   -0.7500    1.2990    0.0000 C   0  0  0  0  0  0  0  0  0  0  0  0
    0.7500    1.2990    0.0000 C   0  0  0  0  0  0  0  0  0  0  0  0
    3.0000   -2.5981    0.0000 N   0  0  0  0  0  0  0  0  0  0  0  0
    3.7500   -3.8971    0.0000 R   0  0  0  0  0  1  0  0  0  1  0  0
    6.0000   -2.5981    0.0000 R   0  0  0  0  0  1  0  0  0  2  0  0
  1  2  2  0
  2  3  1  0
  3  4  1  6
  4  5  1  0
  5  6  1  0
  6  7  1  0
  7  8  1  0
  8  9  1  0
  9 10  1  0
  3 11  1  0
 11 12  1  0
  2 13  1  0
 10  5  1  0
M  END
>  <id>  (580) 
a90b80fd-54fb-4cb8-b115-3576b2149567

>  <Version>  (580) 
0

>  <Alias>  (580) 
D-Cha

>  <Type>  (580) 
amino_acid

>  <Smiles>  (580) 
O=C([C@@H](CC1CCCCC1)N[*:1])[*:2]

>  <ProtectedSmiles>  (580) 
O=C(N[C@H](CC1CCCCC1)C(=O)O)OCC1c2ccccc2-c2ccccc21

>  <CAS>  (580) 
144701-25-7

>  <User>  (580) 
sevan.h

>  <StereoComment>  (580) 
as drawn

>  <Name>  (580) 
Fmoc-D-Cha-OH

>  <Code>  (580) 
D-Cha

>  <AliasLowerCase>  (580) 
d-cha

>  <LatestVersion>  (580) 
0.0

>  <createdAt>  (580) 
2026-01-14T12:16:27.893Z

>  <updatedAt>  (580) 
2026-01-14T12:16:27.893Z

>  <NumRotatableBonds>  (580) 
4

>  <is_N_methyl>  (580) 
False

>  <is_a_methyl>  (580) 
False

>  <is_alpha_aa>  (580) 
True

>  <is_beta_aa>  (580) 
False

>  <is_S100_aa>  (580) 
False

>  <Murcko_SMILES>  (580) 
C1CCCCC1

$$$$

     RDKit          2D

 13 13  0  0  0  0  0  0  0  0999 V2000
    6.0000    0.0000    0.0000 O   0  0  0  0  0  0  0  0  0  0  0  0
    5.2500   -1.2990    0.0000 C   0  0  0  0  0  0  0  0  0  0  0  0
    3.7500   -1.2990    0.0000 C   0  0  0  0  0  0  0  0  0  0  0  0
    3.0000    0.0000    0.0000 C   0  0  0  0  0  0  0  0  0  0  0  0
    1.5000    0.0000    0.0000 C   0  0  0  0  0  0  0  0  0  0  0  0
    0.7500   -1.2990    0.0000 C   0  0  0  0  0  0  0  0  0  0  0  0
   -0.7500   -1.2990    0.0000 C   0  0  0  0  0  0  0  0  0  0  0  0
   -1.5000    0.0000    0.0000 N   0  0  0  0  0  0  0  0  0  0  0  0
   -0.7500    1.2990    0.0000 C   0  0  0  0  0  0  0  0  0  0  0  0
    0.7500    1.2990    0.0000 C   0  0  0  0  0  0  0  0  0  0  0  0
    3.0000   -2.5981    0.0000 N   0  0  0  0  0  0  0  0  0  0  0  0
    3.7500   -3.8971    0.0000 R   0  0  0  0  0  1  0  0  0  1  0  0
    6.0000   -2.5981    0.0000 R   0  0  0  0  0  1  0  0  0  2  0  0
  1  2  2  0
  2  3  1  0
  3  4  1  1
  4  5  1  0
  5  6  2  0
  6  7  1  0
  7  8  2  0
  8  9  1  0
  9 10  2  0
  3 11  1  0
 11 12  1  0
  2 13  1  0
 10  5  1  0
M  END
>  <id>  (581) 
7e4b7aa2-d961-4228-a909-4a607d7a6ede

>  <Version>  (581) 
0

>  <Alias>  (581) 
4Pyr

>  <Type>  (581) 
amino_acid

>  <Smiles>  (581) 
O=C([C@H](Cc1ccncc1)N[*:1])[*:2]

>  <ProtectedSmiles>  (581) 
O=C(N[C@@H](Cc1ccncc1)C(=O)O)OCC1c2ccccc2-c2ccccc21

>  <CAS>  (581) 
169555-95-7

>  <User>  (581) 
sevan.h

>  <StereoComment>  (581) 
as drawn

>  <Name>  (581) 
Fmoc-L-(4-pyridyl)alanine

>  <Code>  (581) 
4Pyr

>  <AliasLowerCase>  (581) 
4pyr

>  <LatestVersion>  (581) 
0.0

>  <createdAt>  (581) 
2026-01-14T12:17:30.927Z

>  <updatedAt>  (581) 
2026-01-14T12:17:30.927Z

>  <NumRotatableBonds>  (581) 
4

>  <is_N_methyl>  (581) 
False

>  <is_a_methyl>  (581) 
False

>  <is_alpha_aa>  (581) 
True

>  <is_beta_aa>  (581) 
False

>  <is_S100_aa>  (581) 
False

>  <Murcko_SMILES>  (581) 
c1ccncc1

$$$$

     RDKit          2D

 10  9  0  0  0  0  0  0  0  0999 V2000
    6.4952    0.7500    0.0000 N   0  0  0  0  0  0  0  0  0  0  0  0
    5.1962   -0.0000    0.0000 C   0  0  0  0  0  0  0  0  0  0  0  0
    5.1962   -1.5000    0.0000 O   0  0  0  0  0  0  0  0  0  0  0  0
    3.8971    0.7500    0.0000 C   0  0  0  0  0  0  0  0  0  0  0  0
    2.5981   -0.0000    0.0000 C   0  0  0  0  0  0  0  0  0  0  0  0
    1.2990    0.7500    0.0000 N   0  0  0  0  0  0  0  0  0  0  0  0
    0.0000    0.0000    0.0000 R   0  0  0  0  0  1  0  0  0  1  0  0
    2.5981   -1.5000    0.0000 C   0  0  0  0  0  0  0  0  0  0  0  0
    1.2990   -2.2500    0.0000 O   0  0  0  0  0  0  0  0  0  0  0  0
    3.8971   -2.2500    0.0000 R   0  0  0  0  0  1  0  0  0  2  0  0
  1  2  1  0
  2  3  2  0
  2  4  1  0
  5  4  1  1
  5  6  1  0
  6  7  1  0
  5  8  1  0
  8  9  2  0
  8 10  1  0
M  END
>  <id>  (582) 
693b4390-6283-4b1b-bb22-68eaac083866

>  <Version>  (582) 
0

>  <Alias>  (582) 
Asn

>  <Type>  (582) 
amino_acid

>  <Smiles>  (582) 
NC(=O)C[C@H](N[*:1])C(=O)[*:2]

>  <ProtectedSmiles>  (582) 
O=C(C[C@H](NC(=O)OCC1c2ccccc2-c2ccccc21)C(=O)O)NC(c1ccccc1)(c1ccccc1)c1ccccc1

>  <CAS>  (582) 
132388-59-1

>  <User>  (582) 
sevan.h

>  <StereoComment>  (582) 
as drawn

>  <Name>  (582) 
Fmoc-Asn(Trt)-OH

>  <Code>  (582) 
Asn

>  <AliasLowerCase>  (582) 
asn

>  <LatestVersion>  (582) 
0.0

>  <createdAt>  (582) 
2026-01-14T12:17:04.592Z

>  <updatedAt>  (582) 
2026-01-14T12:17:04.592Z

>  <NumRotatableBonds>  (582) 
4

>  <is_N_methyl>  (582) 
False

>  <is_a_methyl>  (582) 
False

>  <is_alpha_aa>  (582) 
True

>  <is_beta_aa>  (582) 
False

>  <is_S100_aa>  (582) 
False

>  <Murcko_SMILES>  (582) 


$$$$

     RDKit          2D

 14 14  0  0  0  0  0  0  0  0999 V2000
    5.2500   -3.8971    0.0000 O   0  0  0  0  0  0  0  0  0  0  0  0
    6.0000   -2.5981    0.0000 C   0  0  0  0  0  0  0  0  0  0  0  0
    5.2500   -1.2990    0.0000 C   0  0  0  0  0  0  0  0  0  0  0  0
    3.7500   -1.2990    0.0000 C   0  0  0  0  0  0  0  0  0  0  0  0
    3.0000    0.0000    0.0000 O   0  0  0  0  0  0  0  0  0  0  0  0
    1.5000    0.0000    0.0000 C   0  0  0  0  0  0  0  0  0  0  0  0
    0.7500   -1.2990    0.0000 C   0  0  0  0  0  0  0  0  0  0  0  0
   -0.7500   -1.2990    0.0000 C   0  0  0  0  0  0  0  0  0  0  0  0
   -1.5000    0.0000    0.0000 C   0  0  0  0  0  0  0  0  0  0  0  0
   -0.7500    1.2990    0.0000 C   0  0  0  0  0  0  0  0  0  0  0  0
    0.7500    1.2990    0.0000 C   0  0  0  0  0  0  0  0  0  0  0  0
    6.0000    0.0000    0.0000 N   0  0  0  0  0  0  0  0  0  0  0  0
    7.5000    0.0000    0.0000 R   0  0  0  0  0  1  0  0  0  1  0  0
    7.5000   -2.5981    0.0000 R   0  0  0  0  0  1  0  0  0  2  0  0
  1  2  2  0
  2  3  1  0
  3  4  1  6
  4  5  1  0
  5  6  1  0
  6  7  2  0
  7  8  1  0
  8  9  2  0
  9 10  1  0
 10 11  2  0
  3 12  1  0
 12 13  1  0
  2 14  1  0
 11  6  1  0
M  END
>  <id>  (583) 
a46cf735-6b09-4d0e-9dc5-cd56d1690612

>  <Version>  (583) 
0

>  <Alias>  (583) 
Ser(OPh)

>  <Type>  (583) 
amino_acid

>  <Smiles>  (583) 
O=C([C@H](COc1ccccc1)N[*:1])[*:2]

>  <ProtectedSmiles>  (583) 
O=C(N[C@@H](COc1ccccc1)C(=O)O)OCC1c2ccccc2-c2ccccc21

>  <CAS>  (583) 
1401662-77-8

>  <User>  (583) 
Sevan.habeshian@orbismedicines.com

>  <StereoComment>  (583) 
as drawn

>  <Name>  (583) 
N/A

>  <Code>  (583) 
Ser(OPh)

>  <AliasLowerCase>  (583) 
ser(oph)

>  <LatestVersion>  (583) 
0.0

>  <createdAt>  (583) 
2026-02-13T09:56:35.392Z

>  <updatedAt>  (583) 
2026-02-13T09:56:35.392Z

>  <NumRotatableBonds>  (583) 
5

>  <is_N_methyl>  (583) 
False

>  <is_a_methyl>  (583) 
False

>  <is_alpha_aa>  (583) 
True

>  <is_beta_aa>  (583) 
False

>  <is_S100_aa>  (583) 
False

>  <Murcko_SMILES>  (583) 
c1ccccc1

$$$$

     RDKit          2D

 10 10  0  0  0  0  0  0  0  0999 V2000
    2.5607   -2.5981    0.0000 O   0  0  0  0  0  0  0  0  0  0  0  0
    3.3107   -1.2990    0.0000 C   0  0  0  0  0  0  0  0  0  0  0  0
    2.5607    0.0000    0.0000 C   0  0  0  0  0  0  0  0  0  0  0  0
    3.3107    1.2990    0.0000 N   0  0  0  0  0  0  0  0  0  0  0  0
    4.8107    1.2990    0.0000 R   0  0  0  0  0  1  0  0  0  1  0  0
    1.0607    0.0000    0.0000 C   0  0  0  0  0  0  0  0  0  0  0  0
   -0.0000   -1.0607    0.0000 C   0  0  0  0  0  0  0  0  0  0  0  0
   -1.0607    0.0000    0.0000 C   0  0  0  0  0  0  0  0  0  0  0  0
    0.0000    1.0607    0.0000 C   0  0  0  0  0  0  0  0  0  0  0  0
    4.8107   -1.2990    0.0000 R   0  0  0  0  0  1  0  0  0  2  0  0
  1  2  2  0
  2  3  1  0
  3  4  1  6
  4  5  1  0
  3  6  1  0
  6  7  1  0
  7  8  1  0
  8  9  1  0
  2 10  1  0
  9  6  1  0
M  END
>  <id>  (584) 
e84047aa-f395-444d-b377-2c2baac7e048

>  <Version>  (584) 
0

>  <Alias>  (584) 
cButGly

>  <Type>  (584) 
amino_acid

>  <Smiles>  (584) 
O=C([C@@H](N[*:1])C1CCC1)[*:2]

>  <ProtectedSmiles>  (584) 
O=C(N[C@H](C(=O)O)C1CCC1)OCC1c2ccccc2-c2ccccc21

>  <CAS>  (584) 
1391630-31-1

>  <User>  (584) 
sevan.h

>  <StereoComment>  (584) 
as drawn

>  <Name>  (584) 
Fmoc-CyclobutylGlycine

>  <Code>  (584) 
cButGly

>  <AliasLowerCase>  (584) 
cbutgly

>  <LatestVersion>  (584) 
0.0

>  <createdAt>  (584) 
2026-01-14T12:15:26.771Z

>  <updatedAt>  (584) 
2026-01-14T12:15:26.771Z

>  <NumRotatableBonds>  (584) 
3

>  <is_N_methyl>  (584) 
False

>  <is_a_methyl>  (584) 
False

>  <is_alpha_aa>  (584) 
True

>  <is_beta_aa>  (584) 
False

>  <is_S100_aa>  (584) 
False

>  <Murcko_SMILES>  (584) 
C1CCC1

$$$$

     RDKit          2D

 12 12  0  0  0  0  0  0  0  0999 V2000
    3.7500    1.2990    0.0000 O   0  0  0  0  0  0  0  0  0  0  0  0
    3.0000    0.0000    0.0000 C   0  0  0  0  0  0  0  0  0  0  0  0
    1.5000    0.0000    0.0000 C   0  0  0  0  0  0  0  0  0  0  0  0
    0.7500   -1.2990    0.0000 C   0  0  0  0  0  0  0  0  0  0  0  0
   -0.7500   -1.2990    0.0000 C   0  0  0  0  0  0  0  0  0  0  0  0
   -1.5000   -2.5981    0.0000 N   0  0  0  0  0  0  0  0  0  0  0  0
   -3.0000   -2.5981    0.0000 R   0  0  0  0  0  1  0  0  0  1  0  0
   -1.5000    0.0000    0.0000 C   0  0  0  0  0  0  0  0  0  0  0  0
   -0.7500    1.2990    0.0000 C   0  0  0  0  0  0  0  0  0  0  0  0
    0.7500    1.2990    0.0000 C   0  0  0  0  0  0  0  0  0  0  0  0
    1.5000    2.5981    0.0000 Cl  0  0  0  0  0  0  0  0  0  0  0  0
    3.7500   -1.2990    0.0000 R   0  0  0  0  0  1  0  0  0  2  0  0
  1  2  2  0
  2  3  1  0
  3  4  2  0
  4  5  1  0
  5  6  1  0
  6  7  1  0
  5  8  2  0
  8  9  1  0
  9 10  2  0
 10 11  1  0
  2 12  1  0
 10  3  1  0
M  END
>  <id>  (585) 
21796e2b-5aad-4fb2-9ab7-7aab7f2cb745

>  <Version>  (585) 
0

>  <Alias>  (585) 
(2Cl)-3Abz

>  <Type>  (585) 
amino_acid

>  <Smiles>  (585) 
O=C(c1cc(N[*:1])ccc1Cl)[*:2]

>  <ProtectedSmiles>  (585) 
O=C(Nc1ccc(Cl)c(C(=O)O)c1)OCC1c2ccccc2-c2ccccc21

>  <CAS>  (585) 
186320-16-1

>  <User>  (585) 
gontran.s

>  <StereoComment>  (585) 
as drawn

>  <Name>  (585) 
Fmoc-5-amino-2-chlorobenzoic acid

>  <Code>  (585) 
(2Cl)-3Abz

>  <AliasLowerCase>  (585) 
(2cl)-3abz

>  <LatestVersion>  (585) 
0.0

>  <createdAt>  (585) 
2026-01-14T11:36:54.347Z

>  <updatedAt>  (585) 
2026-01-14T11:36:54.347Z

>  <NumRotatableBonds>  (585) 
2

>  <is_N_methyl>  (585) 
False

>  <is_a_methyl>  (585) 
False

>  <is_alpha_aa>  (585) 
False

>  <is_beta_aa>  (585) 
False

>  <is_S100_aa>  (585) 
False

>  <Murcko_SMILES>  (585) 
c1ccccc1

$$$$

     RDKit          2D

 14 15  0  0  0  0  0  0  0  0999 V2000
    3.7500   -1.2990    0.0000 O   0  0  0  0  0  0  0  0  0  0  0  0
    3.0000   -2.5981    0.0000 C   0  0  0  0  0  0  0  0  0  0  0  0
    1.5000   -2.5981    0.0000 C   0  0  0  0  0  0  0  0  0  0  0  0
    0.7500   -1.2990    0.0000 C   0  0  0  0  0  0  0  0  0  0  0  0
    1.5000    0.0000    0.0000 C   0  0  0  0  0  0  0  0  0  0  0  0
    0.7500    1.2990    0.0000 C   0  0  0  0  0  0  0  0  0  0  0  0
   -0.7500    1.2990    0.0000 C   0  0  0  0  0  0  0  0  0  0  0  0
   -1.5000    2.5981    0.0000 N   0  0  0  0  0  0  0  0  0  0  0  0
   -0.7500    3.8971    0.0000 R   0  0  0  0  0  1  0  0  0  1  0  0
   -1.5000    0.0000    0.0000 C   0  0  0  0  0  0  0  0  0  0  0  0
   -0.7500   -1.2990    0.0000 C   0  0  0  0  0  0  0  0  0  0  0  0
   -0.3828    0.5621    0.0000 C   0  0  0  0  0  0  0  0  0  0  0  0
    0.2954   -0.6125    0.0000 C   0  0  0  0  0  0  0  0  0  0  0  0
    3.7500   -3.8971    0.0000 R   0  0  0  0  0  1  0  0  0  2  0  0
  1  2  2  0
  2  3  1  0
  3  4  1  0
  4  5  1  0
  5  6  1  0
  6  7  1  0
  7  8  1  0
  8  9  1  0
  7 10  1  0
 10 11  1  0
  7 12  1  0
 12 13  1  0
  2 14  1  0
 11  4  1  0
 13  4  1  0
M  END
>  <id>  (586) 
9e26640a-78ac-4b59-94fb-5e0ecbd847f6

>  <Version>  (586) 
0

>  <Alias>  (586) 
biCyc-2,2,2-OctAcAcid

>  <Type>  (586) 
amino_acid

>  <Smiles>  (586) 
O=C(CC12CCC(N[*:1])(CC1)CC2)[*:2]

>  <ProtectedSmiles>  (586) 
O=C(O)CC12CCC(NC(=O)OCC3c4ccccc4-c4ccccc43)(CC1)CC2

>  <CAS>  (586) 


>  <User>  (586) 
emile.b

>  <StereoComment>  (586) 
as drawn

>  <Name>  (586) 
2-(4-Fmoc-Aminobicyclo[2.2.2]octan-1-yl)acetic acid

>  <Code>  (586) 
biCyc-2,2,2-OctAcAcid

>  <AliasLowerCase>  (586) 
bicyc-2,2,2-octacacid

>  <LatestVersion>  (586) 
0.0

>  <createdAt>  (586) 
2026-01-14T11:33:37.220Z

>  <updatedAt>  (586) 
2026-01-14T11:33:37.220Z

>  <NumRotatableBonds>  (586) 
3

>  <is_N_methyl>  (586) 
False

>  <is_a_methyl>  (586) 
False

>  <is_alpha_aa>  (586) 
False

>  <is_beta_aa>  (586) 
False

>  <is_S100_aa>  (586) 
False

>  <Murcko_SMILES>  (586) 
C1CC2CCC1CC2

$$$$

     RDKit          2D

  8  7  0  0  0  0  0  0  0  0999 V2000
    5.1962   -1.5000    0.0000 O   0  0  0  0  0  0  0  0  0  0  0  0
    5.1962   -0.0000    0.0000 C   0  0  0  0  0  0  0  0  0  0  0  0
    3.8971    0.7500    0.0000 C   0  0  0  0  0  0  0  0  0  0  0  0
    3.8971    2.2500    0.0000 O   0  0  0  0  0  0  0  0  0  0  0  0
    2.5981   -0.0000    0.0000 C   0  0  0  0  0  0  0  0  0  0  0  0
    1.2990    0.7500    0.0000 N   0  0  0  0  0  0  0  0  0  0  0  0
    0.0000    0.0000    0.0000 R   0  0  0  0  0  1  0  0  0  1  0  0
    6.4952    0.7500    0.0000 R   0  0  0  0  0  1  0  0  0  2  0  0
  1  2  2  0
  2  3  1  0
  3  4  1  0
  3  5  1  0
  5  6  1  0
  6  7  1  0
  2  8  1  0
M  END
>  <id>  (587) 
472b0beb-cfe2-4bdc-9489-01ae7d893703

>  <Version>  (587) 
0

>  <Alias>  (587) 
ISer

>  <Type>  (587) 
amino_acid

>  <Smiles>  (587) 
O=C(C(O)CN[*:1])[*:2]

>  <ProtectedSmiles>  (587) 
O=C(NCC(O)C(=O)O)OCC1c2ccccc2-c2ccccc21

>  <CAS>  (587) 
161125-36-6

>  <User>  (587) 
sevan.h

>  <StereoComment>  (587) 
as drawn

>  <Name>  (587) 
Fmoc-DL-isoSer-OH

>  <Code>  (587) 
ISer

>  <AliasLowerCase>  (587) 
iser

>  <LatestVersion>  (587) 
0.0

>  <createdAt>  (587) 
2026-01-14T12:15:40.673Z

>  <updatedAt>  (587) 
2026-01-14T12:15:40.673Z

>  <NumRotatableBonds>  (587) 
3

>  <is_N_methyl>  (587) 
False

>  <is_a_methyl>  (587) 
False

>  <is_alpha_aa>  (587) 
False

>  <is_beta_aa>  (587) 
True

>  <is_S100_aa>  (587) 
False

>  <Murcko_SMILES>  (587) 


$$$$

     RDKit          2D

 14 15  0  0  0  0  0  0  0  0999 V2000
    3.5260    1.2990    0.0000 O   0  0  0  0  0  0  0  0  0  0  0  0
    2.7760    0.0000    0.0000 C   0  0  0  0  0  0  0  0  0  0  0  0
    1.2760    0.0000    0.0000 C   0  0  0  0  0  0  0  0  0  0  0  0
    0.3943    1.2135    0.0000 C   0  0  0  0  0  0  0  0  0  0  0  0
   -1.0323    0.7500    0.0000 N   0  0  0  0  0  0  0  0  0  0  0  0
   -2.2458    1.6317    0.0000 C   0  0  0  0  0  0  0  0  0  0  0  0
   -3.6724    1.1682    0.0000 C   0  0  0  0  0  0  0  0  0  0  0  0
   -4.5541    2.3817    0.0000 C   0  0  0  0  0  0  0  0  0  0  0  0
   -3.6724    3.5952    0.0000 N   0  0  0  0  0  0  0  0  0  0  0  0
   -4.1359    5.0218    0.0000 R   0  0  0  0  0  1  0  0  0  1  0  0
   -2.2458    3.1317    0.0000 C   0  0  0  0  0  0  0  0  0  0  0  0
   -1.0323   -0.7500    0.0000 N   0  0  0  0  0  0  0  0  0  0  0  0
    0.3943   -1.2135    0.0000 N   0  0  0  0  0  0  0  0  0  0  0  0
    3.5260   -1.2990    0.0000 R   0  0  0  0  0  1  0  0  0  2  0  0
  1  2  2  0
  2  3  1  0
  3  4  2  0
  4  5  1  0
  5  6  1  0
  6  7  1  0
  7  8  1  0
  8  9  1  0
  9 10  1  0
  9 11  1  0
  5 12  1  0
 12 13  2  0
  2 14  1  0
 13  3  1  0
 11  6  1  0
M  END
>  <id>  (588) 
58550846-e4f9-4b24-a800-2654baeac8d8

>  <Version>  (588) 
0

>  <Alias>  (588) 
3Pyrr_Tria

>  <Type>  (588) 
amino_acid

>  <Smiles>  (588) 
O=C(c1cn(C2CCN([*:1])C2)nn1)[*:2]

>  <ProtectedSmiles>  (588) 
O=C(O)c1cn(C2CCN(C(=O)OCC3c4ccccc4-c4ccccc43)C2)nn1

>  <CAS>  (588) 
2091116-27-5

>  <User>  (588) 
sevan.h

>  <StereoComment>  (588) 
as drawn

>  <Name>  (588) 
1-(1-{[(9H-fluoren-9-yl)methoxy]carbonyl}pyrrolidin-3-yl)-1H-1,2,3-triazole-4-carboxylic acid

>  <Code>  (588) 
3Pyrr_Tria

>  <AliasLowerCase>  (588) 
3pyrr_tria

>  <LatestVersion>  (588) 
0.0

>  <createdAt>  (588) 
2026-01-14T11:32:51.575Z

>  <updatedAt>  (588) 
2026-01-14T11:32:51.575Z

>  <NumRotatableBonds>  (588) 
2

>  <is_N_methyl>  (588) 
False

>  <is_a_methyl>  (588) 
False

>  <is_alpha_aa>  (588) 
False

>  <is_beta_aa>  (588) 
False

>  <is_S100_aa>  (588) 
False

>  <Murcko_SMILES>  (588) 
c1cn(C2CCNC2)nn1

$$$$

     RDKit          2D

 11 11  0  0  0  0  0  0  0  0999 V2000
    3.7500    1.2990    0.0000 O   0  0  0  0  0  0  0  0  0  0  0  0
    3.0000    0.0000    0.0000 C   0  0  0  0  0  0  0  0  0  0  0  0
    1.5000    0.0000    0.0000 C   0  0  0  0  0  0  0  0  0  0  0  0
    0.7500   -1.2990    0.0000 C   0  0  0  0  0  0  0  0  0  0  0  0
   -0.7500   -1.2990    0.0000 C   0  0  0  0  0  0  0  0  0  0  0  0
   -1.5000    0.0000    0.0000 C   0  0  0  0  0  0  0  0  0  0  0  0
   -0.7500    1.2990    0.0000 C   0  0  0  0  0  0  0  0  0  0  0  0
   -1.5000    2.5981    0.0000 N   0  0  0  0  0  0  0  0  0  0  0  0
   -0.7500    3.8971    0.0000 R   0  0  0  0  0  1  0  0  0  1  0  0
    0.7500    1.2990    0.0000 C   0  0  0  0  0  0  0  0  0  0  0  0
    3.7500   -1.2990    0.0000 R   0  0  0  0  0  1  0  0  0  2  0  0
  1  2  2  0
  3  2  1  1
  3  4  1  0
  4  5  1  0
  5  6  1  0
  6  7  1  0
  7  8  1  1
  8  9  1  0
  7 10  1  0
  2 11  1  0
 10  3  1  0
M  END
>  <id>  (589) 
ecb13a22-2538-4e65-a4c9-5aaeaeb95f48

>  <Version>  (589) 
0

>  <Alias>  (589) 
c1,3ACH

>  <Type>  (589) 
amino_acid

>  <Smiles>  (589) 
O=C([C@H]1CCC[C@@H](N[*:1])C1)[*:2]

>  <ProtectedSmiles>  (589) 
O=C(N[C@@H]1CCC[C@H](C(=O)O)C1)OCC1c2ccccc2-c2ccccc21

>  <CAS>  (589) 
312965-05-2

>  <User>  (589) 
sevan.h

>  <StereoComment>  (589) 
as drawn

>  <Name>  (589) 
abs cis-(1S,3R)-Fmoc-aminocyclohexane carboxylic acid

>  <Code>  (589) 
c1,3ACH

>  <AliasLowerCase>  (589) 
c1,3ach

>  <LatestVersion>  (589) 
0.0

>  <createdAt>  (589) 
2026-01-14T12:16:16.796Z

>  <updatedAt>  (589) 
2026-01-14T12:16:16.796Z

>  <NumRotatableBonds>  (589) 
2

>  <is_N_methyl>  (589) 
False

>  <is_a_methyl>  (589) 
False

>  <is_alpha_aa>  (589) 
False

>  <is_beta_aa>  (589) 
False

>  <is_S100_aa>  (589) 
False

>  <Murcko_SMILES>  (589) 
C1CCCCC1

$$$$

     RDKit          2D

 11 11  0  0  0  0  0  0  0  0999 V2000
    3.5260   -1.2990    0.0000 C   0  0  0  0  0  0  0  0  0  0  0  0
    2.7760    0.0000    0.0000 O   0  0  0  0  0  0  0  0  0  0  0  0
    1.2760    0.0000    0.0000 C   0  0  0  0  0  0  0  0  0  0  0  0
    0.3943    1.2135    0.0000 C   0  0  0  0  0  0  0  0  0  0  0  0
   -1.0323    0.7500    0.0000 C   0  0  0  0  0  0  0  0  0  0  0  0
   -2.2458    1.6317    0.0000 C   0  0  0  0  0  0  0  0  0  0  0  0
   -3.6161    1.0216    0.0000 O   0  0  0  0  0  0  0  0  0  0  0  0
   -2.0890    3.1235    0.0000 R   0  0  0  0  0  1  0  0  0  2  0  0
   -1.0323   -0.7500    0.0000 N   0  0  0  0  0  0  0  0  0  0  0  0
   -2.2458   -1.6317    0.0000 R   0  0  0  0  0  1  0  0  0  1  0  0
    0.3943   -1.2135    0.0000 C   0  0  0  0  0  0  0  0  0  0  0  0
  1  2  1  0
  3  2  1  1
  3  4  1  0
  4  5  1  0
  5  6  1  6
  6  7  2  0
  6  8  1  0
  5  9  1  0
  9 10  1  0
  9 11  1  0
 11  3  1  0
M  END
>  <id>  (590) 
14c43934-96c5-4abb-aa3a-cb8c4b324213

>  <Version>  (590) 
0

>  <Alias>  (590) 
Pro(4R-OMe)

>  <Type>  (590) 
amino_acid

>  <Smiles>  (590) 
CO[C@@H]1C[C@@H](C(=O)[*:2])N([*:1])C1

>  <ProtectedSmiles>  (590) 
CO[C@@H]1C[C@@H](C(=O)O)N(C(=O)OCC2c3ccccc3-c3ccccc32)C1

>  <CAS>  (590) 
244132-31-8

>  <User>  (590) 
mischa.s

>  <StereoComment>  (590) 
as drawn

>  <Name>  (590) 
(4R)-1-Fmoc-4-methoxy-L-proline

>  <Code>  (590) 
Pro(4R-OMe)

>  <AliasLowerCase>  (590) 
pro(4r-ome)

>  <LatestVersion>  (590) 
0.0

>  <createdAt>  (590) 
2026-01-14T11:36:30.798Z

>  <updatedAt>  (590) 
2026-01-14T11:36:30.798Z

>  <NumRotatableBonds>  (590) 
2

>  <is_N_methyl>  (590) 
False

>  <is_a_methyl>  (590) 
False

>  <is_alpha_aa>  (590) 
True

>  <is_beta_aa>  (590) 
False

>  <is_S100_aa>  (590) 
False

>  <Murcko_SMILES>  (590) 
C1CCNC1

$$$$

     RDKit          2D

 17 17  0  0  0  0  0  0  0  0999 V2000
    6.0000    0.0000    0.0000 O   0  0  0  0  0  0  0  0  0  0  0  0
    5.2500   -1.2990    0.0000 C   0  0  0  0  0  0  0  0  0  0  0  0
    3.7500   -1.2990    0.0000 C   0  0  0  0  0  0  0  0  0  0  0  0
    3.0000    0.0000    0.0000 C   0  0  0  0  0  0  0  0  0  0  0  0
    3.7500    1.2990    0.0000 N   0  0  0  0  0  0  0  0  0  0  0  0
    5.2500    1.2990    0.0000 R   0  0  0  0  0  1  0  0  0  1  0  0
    1.5000    0.0000    0.0000 C   0  0  0  0  0  0  0  0  0  0  0  0
    0.7500   -1.2990    0.0000 C   0  0  0  0  0  0  0  0  0  0  0  0
   -0.7500   -1.2990    0.0000 C   0  0  0  0  0  0  0  0  0  0  0  0
   -1.5000    0.0000    0.0000 C   0  0  0  0  0  0  0  0  0  0  0  0
   -0.7500    1.2990    0.0000 C   0  0  0  0  0  0  0  0  0  0  0  0
   -1.5000    2.5981    0.0000 C   0  0  0  0  0  0  0  0  0  0  0  0
   -2.2500    3.8971    0.0000 F   0  0  0  0  0  0  0  0  0  0  0  0
   -0.2010    3.3481    0.0000 F   0  0  0  0  0  0  0  0  0  0  0  0
   -2.7990    1.8481    0.0000 F   0  0  0  0  0  0  0  0  0  0  0  0
    0.7500    1.2990    0.0000 C   0  0  0  0  0  0  0  0  0  0  0  0
    6.0000   -2.5981    0.0000 R   0  0  0  0  0  1  0  0  0  2  0  0
  1  2  2  0
  2  3  1  0
  4  3  1  1
  4  5  1  0
  5  6  1  0
  4  7  1  0
  7  8  2  0
  8  9  1  0
  9 10  2  0
 10 11  1  0
 11 12  1  0
 12 13  1  0
 12 14  1  0
 12 15  1  0
 11 16  2  0
  2 17  1  0
 16  7  1  0
M  END
>  <id>  (591) 
02e33b14-6315-426e-97e4-e0b62d88bd6a

>  <Version>  (591) 
0

>  <Alias>  (591) 
(3S)-m(CF3)3PhPA

>  <Type>  (591) 
amino_acid

>  <Smiles>  (591) 
O=C(C[C@H](N[*:1])c1cccc(C(F)(F)F)c1)[*:2]

>  <ProtectedSmiles>  (591) 
O=C(O)C[C@H](NC(=O)OCC1c2ccccc2-c2ccccc21)c1cccc(C(F)(F)F)c1

>  <CAS>  (591) 
507472-20-0

>  <User>  (591) 
mischa.s

>  <StereoComment>  (591) 
as drawn

>  <Name>  (591) 
(3S)-3-({[(9H-fluoren-9-yl)methoxy]carbonyl}amino)-3-[3-(trifluoromethyl)phenyl]propanoic acid

>  <Code>  (591) 
(3S)-m(CF3)3PhPA

>  <AliasLowerCase>  (591) 
(3s)-m(cf3)3phpa

>  <LatestVersion>  (591) 
0.0

>  <createdAt>  (591) 
2026-01-14T11:33:10.031Z

>  <updatedAt>  (591) 
2026-01-14T11:33:10.031Z

>  <NumRotatableBonds>  (591) 
4

>  <is_N_methyl>  (591) 
False

>  <is_a_methyl>  (591) 
False

>  <is_alpha_aa>  (591) 
False

>  <is_beta_aa>  (591) 
True

>  <is_S100_aa>  (591) 
False

>  <Murcko_SMILES>  (591) 
c1ccccc1

$$$$

     RDKit          2D

 10 10  0  0  0  0  0  0  0  0999 V2000
    3.7500    1.2990    0.0000 O   0  0  0  0  0  0  0  0  0  0  0  0
    3.0000    0.0000    0.0000 C   0  0  0  0  0  0  0  0  0  0  0  0
    1.5000    0.0000    0.0000 C   0  0  0  0  0  0  0  0  0  0  0  0
    0.7500   -1.2990    0.0000 C   0  0  0  0  0  0  0  0  0  0  0  0
   -0.7500   -1.2990    0.0000 N   0  0  0  0  0  0  0  0  0  0  0  0
   -1.5000   -2.5981    0.0000 R   0  0  0  0  0  1  0  0  0  1  0  0
   -1.5000    0.0000    0.0000 C   0  0  0  0  0  0  0  0  0  0  0  0
   -0.7500    1.2990    0.0000 C   0  0  0  0  0  0  0  0  0  0  0  0
    0.7500    1.2990    0.0000 O   0  0  0  0  0  0  0  0  0  0  0  0
    3.7500   -1.2990    0.0000 R   0  0  0  0  0  1  0  0  0  2  0  0
  1  2  2  0
  3  2  1  1
  3  4  1  0
  4  5  1  0
  5  6  1  0
  5  7  1  0
  7  8  1  0
  8  9  1  0
  2 10  1  0
  9  3  1  0
M  END
>  <id>  (592) 
440b9f45-e481-4f4b-b70b-a6b642cc5940

>  <Version>  (592) 
0

>  <Alias>  (592) 
2R-Morph

>  <Type>  (592) 
amino_acid

>  <Smiles>  (592) 
O=C([C@H]1CN([*:1])CCO1)[*:2]

>  <ProtectedSmiles>  (592) 
O=C(O)[C@H]1CN(C(=O)OCC2c3ccccc3-c3ccccc32)CCO1

>  <CAS>  (592) 
1629740-51-7

>  <User>  (592) 
emile.b

>  <StereoComment>  (592) 
as drawn

>  <Name>  (592) 
(R)-Fmoc-2-carboxymorpholine

>  <Code>  (592) 
2R-Morph

>  <AliasLowerCase>  (592) 
2r-morph

>  <LatestVersion>  (592) 
0.0

>  <createdAt>  (592) 
2026-01-14T11:34:39.203Z

>  <updatedAt>  (592) 
2026-01-14T11:34:39.203Z

>  <NumRotatableBonds>  (592) 
1

>  <is_N_methyl>  (592) 
False

>  <is_a_methyl>  (592) 
False

>  <is_alpha_aa>  (592) 
False

>  <is_beta_aa>  (592) 
True

>  <is_S100_aa>  (592) 
False

>  <Murcko_SMILES>  (592) 
C1COCCN1

$$$$

     RDKit          2D

 14 14  0  0  0  0  0  0  0  0999 V2000
    6.0000    0.0000    0.0000 O   0  0  0  0  0  0  0  0  0  0  0  0
    5.2500   -1.2990    0.0000 C   0  0  0  0  0  0  0  0  0  0  0  0
    3.7500   -1.2990    0.0000 C   0  0  0  0  0  0  0  0  0  0  0  0
    3.0000    0.0000    0.0000 C   0  0  0  0  0  0  0  0  0  0  0  0
    1.5000    0.0000    0.0000 C   0  0  0  0  0  0  0  0  0  0  0  0
    0.7500   -1.2990    0.0000 C   0  0  0  0  0  0  0  0  0  0  0  0
   -0.7500   -1.2990    0.0000 C   0  0  0  0  0  0  0  0  0  0  0  0
   -1.5000    0.0000    0.0000 C   0  0  0  0  0  0  0  0  0  0  0  0
   -0.7500    1.2990    0.0000 C   0  0  0  0  0  0  0  0  0  0  0  0
   -1.5000    2.5981    0.0000 O   0  0  0  0  0  0  0  0  0  0  0  0
    0.7500    1.2990    0.0000 C   0  0  0  0  0  0  0  0  0  0  0  0
    3.0000   -2.5981    0.0000 N   0  0  0  0  0  0  0  0  0  0  0  0
    3.7500   -3.8971    0.0000 R   0  0  0  0  0  1  0  0  0  1  0  0
    6.0000   -2.5981    0.0000 R   0  0  0  0  0  1  0  0  0  2  0  0
  1  2  2  0
  2  3  1  0
  3  4  1  1
  4  5  1  0
  5  6  2  0
  6  7  1  0
  7  8  2  0
  8  9  1  0
  9 10  1  0
  9 11  2  0
  3 12  1  0
 12 13  1  0
  2 14  1  0
 11  5  1  0
M  END
>  <id>  (593) 
a07a3972-2987-4e61-b701-23201c7617ed

>  <Version>  (593) 
0

>  <Alias>  (593) 
3HOPhe

>  <Type>  (593) 
amino_acid

>  <Smiles>  (593) 
O=C([C@H](Cc1cccc(O)c1)N[*:1])[*:2]

>  <ProtectedSmiles>  (593) 
O=C(N[C@@H](Cc1cccc(O)c1)C(=O)O)OCC1c2ccccc2-c2ccccc21

>  <CAS>  (593) 
178432-48-9

>  <User>  (593) 
sevan.h

>  <StereoComment>  (593) 
as drawn

>  <Name>  (593) 
Fmoc-l-phe(3-oh)-oh

>  <Code>  (593) 
3HOPhe

>  <AliasLowerCase>  (593) 
3hophe

>  <LatestVersion>  (593) 
0.0

>  <createdAt>  (593) 
2026-01-14T12:16:20.038Z

>  <updatedAt>  (593) 
2026-01-14T12:16:20.038Z

>  <NumRotatableBonds>  (593) 
4

>  <is_N_methyl>  (593) 
False

>  <is_a_methyl>  (593) 
False

>  <is_alpha_aa>  (593) 
True

>  <is_beta_aa>  (593) 
False

>  <is_S100_aa>  (593) 
False

>  <Murcko_SMILES>  (593) 
c1ccccc1

$$$$

     RDKit          2D

 14 14  0  0  0  0  0  0  0  0999 V2000
    6.0000    0.0000    0.0000 O   0  0  0  0  0  0  0  0  0  0  0  0
    5.2500   -1.2990    0.0000 C   0  0  0  0  0  0  0  0  0  0  0  0
    3.7500   -1.2990    0.0000 C   0  0  0  0  0  0  0  0  0  0  0  0
    3.0000    0.0000    0.0000 C   0  0  0  0  0  0  0  0  0  0  0  0
    1.5000    0.0000    0.0000 C   0  0  0  0  0  0  0  0  0  0  0  0
    0.7500   -1.2990    0.0000 C   0  0  0  0  0  0  0  0  0  0  0  0
   -0.7500   -1.2990    0.0000 C   0  0  0  0  0  0  0  0  0  0  0  0
   -1.5000    0.0000    0.0000 C   0  0  0  0  0  0  0  0  0  0  0  0
   -0.7500    1.2990    0.0000 C   0  0  0  0  0  0  0  0  0  0  0  0
    0.7500    1.2990    0.0000 C   0  0  0  0  0  0  0  0  0  0  0  0
    1.5000    2.5981    0.0000 F   0  0  0  0  0  0  0  0  0  0  0  0
    3.0000   -2.5981    0.0000 N   0  0  0  0  0  0  0  0  0  0  0  0
    3.7500   -3.8971    0.0000 R   0  0  0  0  0  1  0  0  0  1  0  0
    6.0000   -2.5981    0.0000 R   0  0  0  0  0  1  0  0  0  2  0  0
  1  2  2  0
  2  3  1  0
  3  4  1  1
  4  5  1  0
  5  6  2  0
  6  7  1  0
  7  8  2  0
  8  9  1  0
  9 10  2  0
 10 11  1  0
  3 12  1  0
 12 13  1  0
  2 14  1  0
 10  5  1  0
M  END
>  <id>  (594) 
57871bb0-1d99-4b3b-a694-ba9d37ab6fea

>  <Version>  (594) 
0

>  <Alias>  (594) 
2FPhe

>  <Type>  (594) 
amino_acid

>  <Smiles>  (594) 
O=C([C@H](Cc1ccccc1F)N[*:1])[*:2]

>  <ProtectedSmiles>  (594) 
O=C(N[C@@H](Cc1ccccc1F)C(=O)O)OCC1c2ccccc2-c2ccccc21

>  <CAS>  (594) 
205526-26-7

>  <User>  (594) 
sevan.h

>  <StereoComment>  (594) 
as drawn

>  <Name>  (594) 
(2S)-2-(9H-fluoren-9-ylmethoxycarbonylamino)-3-(2-fluorophenyl)propanoic acid

>  <Code>  (594) 
2FPhe

>  <AliasLowerCase>  (594) 
2fphe

>  <LatestVersion>  (594) 
0.0

>  <createdAt>  (594) 
2026-01-14T12:15:54.130Z

>  <updatedAt>  (594) 
2026-01-14T12:15:54.130Z

>  <NumRotatableBonds>  (594) 
4

>  <is_N_methyl>  (594) 
False

>  <is_a_methyl>  (594) 
False

>  <is_alpha_aa>  (594) 
True

>  <is_beta_aa>  (594) 
False

>  <is_S100_aa>  (594) 
False

>  <Murcko_SMILES>  (594) 
c1ccccc1

$$$$

     RDKit          2D

 16 17  0  0  0  0  0  0  0  0999 V2000
   -5.4933   -4.1162    0.0000 O   0  0  0  0  0  0  0  0  0  0  0  0
   -4.3786   -5.1199    0.0000 C   0  0  0  0  0  0  0  0  0  0  0  0
   -2.9520   -4.6564    0.0000 C   0  0  0  0  0  0  0  0  0  0  0  0
   -2.6401   -3.1891    0.0000 C   0  0  0  0  0  0  0  0  0  0  0  0
   -1.2135   -2.7256    0.0000 C   0  0  0  0  0  0  0  0  0  0  0  0
   -0.0000   -3.6073    0.0000 C   0  0  0  0  0  0  0  0  0  0  0  0
    1.2135   -2.7256    0.0000 N   0  0  0  0  0  0  0  0  0  0  0  0
    0.7500   -1.2990    0.0000 C   0  0  0  0  0  0  0  0  0  0  0  0
    1.5000    0.0000    0.0000 C   0  0  0  0  0  0  0  0  0  0  0  0
    0.7500    1.2990    0.0000 C   0  0  0  0  0  0  0  0  0  0  0  0
   -0.7500    1.2990    0.0000 C   0  0  0  0  0  0  0  0  0  0  0  0
   -1.5000    0.0000    0.0000 C   0  0  0  0  0  0  0  0  0  0  0  0
   -0.7500   -1.2990    0.0000 C   0  0  0  0  0  0  0  0  0  0  0  0
   -1.8373   -5.6601    0.0000 N   0  0  0  0  0  0  0  0  0  0  0  0
   -2.1491   -7.1273    0.0000 R   0  0  0  0  0  1  0  0  0  1  0  0
   -4.6904   -6.5871    0.0000 R   0  0  0  0  0  1  0  0  0  2  0  0
  1  2  2  0
  2  3  1  0
  3  4  1  6
  4  5  1  0
  5  6  2  0
  6  7  1  0
  7  8  1  0
  8  9  2  0
  9 10  1  0
 10 11  2  0
 11 12  1  0
 12 13  2  0
  3 14  1  0
 14 15  1  0
  2 16  1  0
 13  5  1  0
 13  8  1  0
M  END
>  <id>  (595) 
3a5837e5-8b5a-44a6-8723-ea0b30255471

>  <Version>  (595) 
0

>  <Alias>  (595) 
Trp

>  <Type>  (595) 
amino_acid

>  <Smiles>  (595) 
O=C([C@H](Cc1c[nH]c2ccccc12)N[*:1])[*:2]

>  <ProtectedSmiles>  (595) 
O=C(N[C@@H](Cc1c[nH]c2ccccc12)C(=O)O)OCC1c2ccccc2-c2ccccc21

>  <CAS>  (595) 
35737-15-6

>  <User>  (595) 
sevan.h

>  <StereoComment>  (595) 
as drawn

>  <Name>  (595) 
Fmoc-Trp-OH

>  <Code>  (595) 
Trp

>  <AliasLowerCase>  (595) 
trp

>  <LatestVersion>  (595) 
0.0

>  <createdAt>  (595) 
2026-01-14T12:17:33.885Z

>  <updatedAt>  (595) 
2026-01-14T12:17:33.885Z

>  <NumRotatableBonds>  (595) 
4

>  <is_N_methyl>  (595) 
False

>  <is_a_methyl>  (595) 
False

>  <is_alpha_aa>  (595) 
True

>  <is_beta_aa>  (595) 
False

>  <is_S100_aa>  (595) 
False

>  <Murcko_SMILES>  (595) 
c1ccc2[nH]ccc2c1

$$$$

     RDKit          2D

 11 10  0  0  0  0  0  0  0  0999 V2000
    7.7942   -0.0000    0.0000 N   0  0  0  0  0  0  0  0  0  0  0  0
    6.4952    0.7500    0.0000 C   0  0  0  0  0  0  0  0  0  0  0  0
    6.4952    2.2500    0.0000 O   0  0  0  0  0  0  0  0  0  0  0  0
    5.1962   -0.0000    0.0000 C   0  0  0  0  0  0  0  0  0  0  0  0
    3.8971    0.7500    0.0000 C   0  0  0  0  0  0  0  0  0  0  0  0
    2.5981   -0.0000    0.0000 C   0  0  0  0  0  0  0  0  0  0  0  0
    1.2990    0.7500    0.0000 N   0  0  0  0  0  0  0  0  0  0  0  0
    0.0000    0.0000    0.0000 R   0  0  0  0  0  1  0  0  0  1  0  0
    2.5981   -1.5000    0.0000 C   0  0  0  0  0  0  0  0  0  0  0  0
    1.2990   -2.2500    0.0000 O   0  0  0  0  0  0  0  0  0  0  0  0
    3.8971   -2.2500    0.0000 R   0  0  0  0  0  1  0  0  0  2  0  0
  1  2  1  0
  2  3  2  0
  2  4  1  0
  4  5  1  0
  6  5  1  6
  6  7  1  0
  7  8  1  0
  6  9  1  0
  9 10  2  0
  9 11  1  0
M  END
>  <id>  (596) 
dc220223-1689-43f2-a33d-1d02679cb181

>  <Version>  (596) 
0

>  <Alias>  (596) 
D-Gln_UP

>  <Type>  (596) 
amino_acid

>  <Smiles>  (596) 
NC(=O)CC[C@@H](N[*:1])C(=O)[*:2]

>  <ProtectedSmiles>  (596) 
NC(=O)CC[C@@H](NC(=O)OCC1c2ccccc2-c2ccccc21)C(=O)O

>  <CAS>  (596) 
112898-00-7

>  <User>  (596) 
Sevan.habeshian@orbismedicines.com

>  <StereoComment>  (596) 
as drawn

>  <Name>  (596) 
N/A

>  <Code>  (596) 
D-Gln_UP

>  <AliasLowerCase>  (596) 
d-gln_up

>  <LatestVersion>  (596) 
0.0

>  <createdAt>  (596) 
2026-02-13T09:56:35.392Z

>  <updatedAt>  (596) 
2026-02-13T09:56:35.392Z

>  <NumRotatableBonds>  (596) 
5

>  <is_N_methyl>  (596) 
False

>  <is_a_methyl>  (596) 
False

>  <is_alpha_aa>  (596) 
True

>  <is_beta_aa>  (596) 
False

>  <is_S100_aa>  (596) 
False

>  <Murcko_SMILES>  (596) 


$$$$

     RDKit          2D

 11 10  0  0  0  0  0  0  0  0999 V2000
    6.4952    2.2500    0.0000 O   0  0  0  0  0  0  0  0  0  0  0  0
    6.4952    0.7500    0.0000 C   0  0  0  0  0  0  0  0  0  0  0  0
    7.7942   -0.0000    0.0000 O   0  0  0  0  0  0  0  0  0  0  0  0
    5.1962   -0.0000    0.0000 C   0  0  0  0  0  0  0  0  0  0  0  0
    3.8971    0.7500    0.0000 C   0  0  0  0  0  0  0  0  0  0  0  0
    2.5981   -0.0000    0.0000 C   0  0  0  0  0  0  0  0  0  0  0  0
    1.2990    0.7500    0.0000 N   0  0  0  0  0  0  0  0  0  0  0  0
    0.0000    0.0000    0.0000 R   0  0  0  0  0  1  0  0  0  1  0  0
    2.5981   -1.5000    0.0000 C   0  0  0  0  0  0  0  0  0  0  0  0
    1.2990   -2.2500    0.0000 O   0  0  0  0  0  0  0  0  0  0  0  0
    3.8971   -2.2500    0.0000 R   0  0  0  0  0  1  0  0  0  2  0  0
  1  2  2  0
  2  3  1  0
  2  4  1  0
  4  5  1  0
  6  5  1  6
  6  7  1  0
  7  8  1  0
  6  9  1  0
  9 10  2  0
  9 11  1  0
M  END
>  <id>  (597) 
b2f2c27f-2176-4f59-86d2-c06010644782

>  <Version>  (597) 
0

>  <Alias>  (597) 
D-Glu

>  <Type>  (597) 
amino_acid

>  <Smiles>  (597) 
O=C(O)CC[C@@H](N[*:1])C(=O)[*:2]

>  <ProtectedSmiles>  (597) 
CC(C)(C)OC(=O)CC[C@@H](NC(=O)OCC1c2ccccc2-c2ccccc21)C(=O)O

>  <CAS>  (597) 
104091-08-9

>  <User>  (597) 
sevan.h

>  <StereoComment>  (597) 
as drawn

>  <Name>  (597) 
Fmoc-D-Glu(OtBu)-OH

>  <Code>  (597) 
D-Glu

>  <AliasLowerCase>  (597) 
d-glu

>  <LatestVersion>  (597) 
0.0

>  <createdAt>  (597) 
2026-01-14T12:16:37.408Z

>  <updatedAt>  (597) 
2026-01-14T12:16:37.408Z

>  <NumRotatableBonds>  (597) 
5

>  <is_N_methyl>  (597) 
False

>  <is_a_methyl>  (597) 
False

>  <is_alpha_aa>  (597) 
True

>  <is_beta_aa>  (597) 
False

>  <is_S100_aa>  (597) 
False

>  <Murcko_SMILES>  (597) 


$$$$

     RDKit          2D

 10 10  0  0  0  0  0  0  0  0999 V2000
    3.5702   -0.6724    0.0000 O   0  0  0  0  0  0  0  0  0  0  0  0
    2.1213   -1.0607    0.0000 C   0  0  0  0  0  0  0  0  0  0  0  0
    1.0607    0.0000    0.0000 C   0  0  0  0  0  0  0  0  0  0  0  0
    2.1213    1.0607    0.0000 C   0  0  0  0  0  0  0  0  0  0  0  0
    3.5702    0.6724    0.0000 N   0  0  0  0  0  0  0  0  0  0  0  0
    4.6309    1.7331    0.0000 R   0  0  0  0  0  1  0  0  0  1  0  0
   -0.0000   -1.0607    0.0000 C   0  0  0  0  0  0  0  0  0  0  0  0
   -1.0607    0.0000    0.0000 C   0  0  0  0  0  0  0  0  0  0  0  0
    0.0000    1.0607    0.0000 C   0  0  0  0  0  0  0  0  0  0  0  0
    1.7331   -2.5095    0.0000 R   0  0  0  0  0  1  0  0  0  2  0  0
  1  2  2  0
  2  3  1  0
  3  4  1  0
  4  5  1  0
  5  6  1  0
  3  7  1  0
  7  8  1  0
  8  9  1  0
  2 10  1  0
  9  3  1  0
M  END
>  <id>  (598) 
114f9933-bf86-44d4-ae83-0d919cb7f8c1

>  <Version>  (598) 
0

>  <Alias>  (598) 
Amcbc

>  <Type>  (598) 
amino_acid

>  <Smiles>  (598) 
O=C(C1(CN[*:1])CCC1)[*:2]

>  <ProtectedSmiles>  (598) 
O=C(NCC1(C(=O)O)CCC1)OCC1c2ccccc2-c2ccccc21

>  <CAS>  (598) 
1550436-68-4

>  <User>  (598) 
Sevan.habeshian@orbismedicines.com

>  <StereoComment>  (598) 
as drawn

>  <Name>  (598) 
N/A

>  <Code>  (598) 
Amcbc

>  <AliasLowerCase>  (598) 
amcbc

>  <LatestVersion>  (598) 
0.0

>  <createdAt>  (598) 
2026-02-13T09:56:35.392Z

>  <updatedAt>  (598) 
2026-02-13T09:56:35.392Z

>  <NumRotatableBonds>  (598) 
3

>  <is_N_methyl>  (598) 
False

>  <is_a_methyl>  (598) 
False

>  <is_alpha_aa>  (598) 
False

>  <is_beta_aa>  (598) 
True

>  <is_S100_aa>  (598) 
False

>  <Murcko_SMILES>  (598) 
C1CCC1

$$$$

     RDKit          2D

 10  9  0  0  0  0  0  0  0  0999 V2000
    6.4952   -2.2500    0.0000 C   0  0  0  0  0  0  0  0  0  0  0  0
    5.1962   -1.5000    0.0000 C   0  0  0  0  0  0  0  0  0  0  0  0
    3.8971   -2.2500    0.0000 C   0  0  0  0  0  0  0  0  0  0  0  0
    5.1962   -0.0000    0.0000 N   0  0  0  0  0  0  0  0  0  0  0  0
    3.8971    0.7500    0.0000 C   0  0  0  0  0  0  0  0  0  0  0  0
    2.5981   -0.0000    0.0000 C   0  0  0  0  0  0  0  0  0  0  0  0
    1.2990    0.7500    0.0000 C   0  0  0  0  0  0  0  0  0  0  0  0
    1.2990    2.2500    0.0000 O   0  0  0  0  0  0  0  0  0  0  0  0
    0.0000    0.0000    0.0000 R   0  0  0  0  0  1  0  0  0  2  0  0
    6.4952    0.7500    0.0000 R   0  0  0  0  0  1  0  0  0  1  0  0
  1  2  1  0
  2  3  1  0
  2  4  1  0
  4  5  1  0
  5  6  1  0
  6  7  1  0
  7  8  2  0
  7  9  1  0
  4 10  1  0
M  END
>  <id>  (599) 
ca366ab1-6811-48fa-a8c5-0701be360e37

>  <Version>  (599) 
0

>  <Alias>  (599) 
(N-iPr)B-Ala

>  <Type>  (599) 
amino_acid

>  <Smiles>  (599) 
CC(C)N(CCC(=O)[*:2])[*:1]

>  <ProtectedSmiles>  (599) 
CC(C)N(CCC(=O)O)C(=O)OCC1c2ccccc2-c2ccccc21

>  <CAS>  (599) 
1342594-74-4

>  <User>  (599) 
angelica.l

>  <StereoComment>  (599) 
as drawn

>  <Name>  (599) 
3-({[(9H-fluoren-9-yl)methoxy]carbonyl}(propan-2-yl)amino)propanoic acid

>  <Code>  (599) 
(N-iPr)B-Ala

>  <AliasLowerCase>  (599) 
(n-ipr)b-ala

>  <LatestVersion>  (599) 
0.0

>  <createdAt>  (599) 
2026-01-14T11:34:10.101Z

>  <updatedAt>  (599) 
2026-01-14T11:34:10.101Z

>  <NumRotatableBonds>  (599) 
4

>  <is_N_methyl>  (599) 
False

>  <is_a_methyl>  (599) 
False

>  <is_alpha_aa>  (599) 
False

>  <is_beta_aa>  (599) 
True

>  <is_S100_aa>  (599) 
False

>  <Murcko_SMILES>  (599) 


$$$$

     RDKit          2D

 13 13  0  0  0  0  0  0  0  0999 V2000
    6.0000    0.0000    0.0000 O   0  0  0  0  0  0  0  0  0  0  0  0
    5.2500   -1.2990    0.0000 C   0  0  0  0  0  0  0  0  0  0  0  0
    3.7500   -1.2990    0.0000 C   0  0  0  0  0  0  0  0  0  0  0  0
    3.0000    0.0000    0.0000 C   0  0  0  0  0  0  0  0  0  0  0  0
    1.5000    0.0000    0.0000 C   0  0  0  0  0  0  0  0  0  0  0  0
    0.7500   -1.2990    0.0000 C   0  0  0  0  0  0  0  0  0  0  0  0
   -0.7500   -1.2990    0.0000 C   0  0  0  0  0  0  0  0  0  0  0  0
   -1.5000    0.0000    0.0000 O   0  0  0  0  0  0  0  0  0  0  0  0
   -0.7500    1.2990    0.0000 C   0  0  0  0  0  0  0  0  0  0  0  0
    0.7500    1.2990    0.0000 C   0  0  0  0  0  0  0  0  0  0  0  0
    3.0000   -2.5981    0.0000 N   0  0  0  0  0  0  0  0  0  0  0  0
    3.7500   -3.8971    0.0000 R   0  0  0  0  0  1  0  0  0  1  0  0
    6.0000   -2.5981    0.0000 R   0  0  0  0  0  1  0  0  0  2  0  0
  1  2  2  0
  2  3  1  0
  3  4  1  1
  4  5  1  0
  5  6  1  0
  6  7  1  0
  7  8  1  0
  8  9  1  0
  9 10  1  0
  3 11  1  0
 11 12  1  0
  2 13  1  0
 10  5  1  0
M  END
>  <id>  (600) 
e134a00a-0cf8-49b0-af0d-5ace35a93344

>  <Version>  (600) 
0

>  <Alias>  (600) 
4THPAla

>  <Type>  (600) 
amino_acid

>  <Smiles>  (600) 
O=C([C@H](CC1CCOCC1)N[*:1])[*:2]

>  <ProtectedSmiles>  (600) 
O=C(N[C@@H](CC1CCOCC1)C(=O)O)OCC1c2ccccc2-c2ccccc21

>  <CAS>  (600) 
368866-34-6

>  <User>  (600) 
Sevan.habeshian@orbismedicines.com

>  <StereoComment>  (600) 
as drawn

>  <Name>  (600) 
N/A

>  <Code>  (600) 
4THPAla

>  <AliasLowerCase>  (600) 
4thpala

>  <LatestVersion>  (600) 
0.0

>  <createdAt>  (600) 
2026-02-13T09:56:36.326Z

>  <updatedAt>  (600) 
2026-02-13T09:56:36.326Z

>  <NumRotatableBonds>  (600) 
4

>  <is_N_methyl>  (600) 
False

>  <is_a_methyl>  (600) 
False

>  <is_alpha_aa>  (600) 
True

>  <is_beta_aa>  (600) 
False

>  <is_S100_aa>  (600) 
False

>  <Murcko_SMILES>  (600) 
C1CCOCC1

$$$$

     RDKit          2D

 13 13  0  0  0  0  0  0  0  0999 V2000
    6.0000    0.0000    0.0000 O   0  0  0  0  0  0  0  0  0  0  0  0
    5.2500   -1.2990    0.0000 C   0  0  0  0  0  0  0  0  0  0  0  0
    3.7500   -1.2990    0.0000 C   0  0  0  0  0  0  0  0  0  0  0  0
    3.0000    0.0000    0.0000 C   0  0  0  0  0  0  0  0  0  0  0  0
    1.5000    0.0000    0.0000 C   0  0  0  0  0  0  0  0  0  0  0  0
    0.7500   -1.2990    0.0000 C   0  0  0  0  0  0  0  0  0  0  0  0
   -0.7500   -1.2990    0.0000 C   0  0  0  0  0  0  0  0  0  0  0  0
   -1.5000    0.0000    0.0000 C   0  0  0  0  0  0  0  0  0  0  0  0
   -0.7500    1.2990    0.0000 N   0  0  0  0  0  0  0  0  0  0  0  0
    0.7500    1.2990    0.0000 C   0  0  0  0  0  0  0  0  0  0  0  0
    3.0000   -2.5981    0.0000 N   0  0  0  0  0  0  0  0  0  0  0  0
    3.7500   -3.8971    0.0000 R   0  0  0  0  0  1  0  0  0  1  0  0
    6.0000   -2.5981    0.0000 R   0  0  0  0  0  1  0  0  0  2  0  0
  1  2  2  0
  2  3  1  0
  3  4  1  6
  4  5  1  0
  5  6  2  0
  6  7  1  0
  7  8  2  0
  8  9  1  0
  9 10  2  0
  3 11  1  0
 11 12  1  0
  2 13  1  0
 10  5  1  0
M  END
>  <id>  (601) 
031166a3-6df5-4317-8cd4-8d1a26d31acb

>  <Version>  (601) 
0

>  <Alias>  (601) 
D-3Pyr

>  <Type>  (601) 
amino_acid

>  <Smiles>  (601) 
O=C([C@@H](Cc1cccnc1)N[*:1])[*:2]

>  <ProtectedSmiles>  (601) 
O=C(N[C@H](Cc1cccnc1)C(=O)O)OCC1c2ccccc2-c2ccccc21

>  <CAS>  (601) 
142994-45-4

>  <User>  (601) 
sevan.h

>  <StereoComment>  (601) 
as drawn

>  <Name>  (601) 
Fmoc-D-3-pyridylalanine

>  <Code>  (601) 
D-3Pyr

>  <AliasLowerCase>  (601) 
d-3pyr

>  <LatestVersion>  (601) 
0.0

>  <createdAt>  (601) 
2026-01-14T12:16:22.659Z

>  <updatedAt>  (601) 
2026-01-14T12:16:22.659Z

>  <NumRotatableBonds>  (601) 
4

>  <is_N_methyl>  (601) 
False

>  <is_a_methyl>  (601) 
False

>  <is_alpha_aa>  (601) 
True

>  <is_beta_aa>  (601) 
False

>  <is_S100_aa>  (601) 
False

>  <Murcko_SMILES>  (601) 
c1ccncc1

$$$$

     RDKit          2D

 15 16  0  0  0  0  0  0  0  0999 V2000
    3.0613   -7.3456    0.0000 O   0  0  0  0  0  0  0  0  0  0  0  0
    1.8478   -6.4639    0.0000 C   0  0  0  0  0  0  0  0  0  0  0  0
    2.0046   -4.9721    0.0000 C   0  0  0  0  0  0  0  0  0  0  0  0
    3.3037   -4.2221    0.0000 C   0  0  0  0  0  0  0  0  0  0  0  0
    2.9918   -2.7549    0.0000 C   0  0  0  0  0  0  0  0  0  0  0  0
    1.5000   -2.5981    0.0000 N   0  0  0  0  0  0  0  0  0  0  0  0
    0.7500   -1.2990    0.0000 C   0  0  0  0  0  0  0  0  0  0  0  0
    1.5000    0.0000    0.0000 C   0  0  0  0  0  0  0  0  0  0  0  0
    0.7500    1.2990    0.0000 C   0  0  0  0  0  0  0  0  0  0  0  0
   -0.7500    1.2990    0.0000 C   0  0  0  0  0  0  0  0  0  0  0  0
   -1.5000    0.0000    0.0000 N   0  0  0  0  0  0  0  0  0  0  0  0
   -3.0000    0.0000    0.0000 R   0  0  0  0  0  1  0  0  0  1  0  0
   -0.7500   -1.2990    0.0000 C   0  0  0  0  0  0  0  0  0  0  0  0
    0.8899   -3.9684    0.0000 N   0  0  0  0  0  0  0  0  0  0  0  0
    0.4775   -7.0740    0.0000 R   0  0  0  0  0  1  0  0  0  2  0  0
  1  2  2  0
  2  3  1  0
  3  4  1  0
  4  5  2  0
  5  6  1  0
  6  7  1  0
  7  8  1  0
  8  9  1  0
  9 10  1  0
 10 11  1  0
 11 12  1  0
 11 13  1  0
  6 14  1  0
  2 15  1  0
 14  3  2  0
 13  7  1  0
M  END
>  <id>  (602) 
12881096-f0d6-4a2c-8d9c-849f72c114e9

>  <Version>  (602) 
0

>  <Alias>  (602) 
1Pip_1HPyra

>  <Type>  (602) 
amino_acid

>  <Smiles>  (602) 
O=C(c1ccn(C2CCCN([*:1])C2)n1)[*:2]

>  <ProtectedSmiles>  (602) 
O=C(O)c1ccn(C2CCCN(C(=O)OCC3c4ccccc4-c4ccccc43)C2)n1

>  <CAS>  (602) 
2091853-19-7

>  <User>  (602) 
sevan.h

>  <StereoComment>  (602) 
as drawn

>  <Name>  (602) 
1-(1-{[(9H-fluoren-9-yl)methoxy]carbonyl}piperidin-3-yl)-1H-pyrazole-3-carboxylic acid

>  <Code>  (602) 
1Pip_1HPyra

>  <AliasLowerCase>  (602) 
1pip_1hpyra

>  <LatestVersion>  (602) 
0.0

>  <createdAt>  (602) 
2026-01-14T11:32:52.151Z

>  <updatedAt>  (602) 
2026-01-14T11:32:52.151Z

>  <NumRotatableBonds>  (602) 
2

>  <is_N_methyl>  (602) 
False

>  <is_a_methyl>  (602) 
False

>  <is_alpha_aa>  (602) 
False

>  <is_beta_aa>  (602) 
False

>  <is_S100_aa>  (602) 
False

>  <Murcko_SMILES>  (602) 
c1cnn(C2CCCNC2)c1

$$$$

     RDKit          2D

  0  0  0  0  0  0  0  0  0  0999 V3000
M  V30 BEGIN CTAB
M  V30 COUNTS 15 16 0 0 0
M  V30 BEGIN ATOM
M  V30 1 O -1.581022 -3.165545 0.000000 0
M  V30 2 C -0.577326 -4.280262 0.000000 0
M  V30 3 C 0.889895 -3.968394 0.000000 0
M  V30 4 C 2.004612 -4.972090 0.000000 0
M  V30 5 N 3.303650 -4.222090 0.000000 0
M  V30 6 "NOT [H]" 4.673969 -4.832195 0.000000 1
M  V30 7 C 2.991783 -2.754869 0.000000 0
M  V30 8 C 1.500000 -2.598076 0.000000 0
M  V30 9 C 0.750000 -1.299038 0.000000 0
M  V30 10 C 1.500000 0.000000 0.000000 0
M  V30 11 C 0.750000 1.299038 0.000000 0
M  V30 12 C -0.750000 1.299038 0.000000 0
M  V30 13 C -1.500000 0.000000 0.000000 0
M  V30 14 C -0.750000 -1.299038 0.000000 0
M  V30 15 "NOT [H]" -1.040852 -5.706847 0.000000 2
M  V30 END ATOM
M  V30 BEGIN BOND
M  V30 1 2 1 2
M  V30 2 1 3 2 CFG=1
M  V30 3 1 3 4
M  V30 4 1 4 5
M  V30 5 1 5 6
M  V30 6 1 5 7
M  V30 7 1 7 8
M  V30 8 1 8 9 CFG=3
M  V30 9 1 9 10
M  V30 10 1 10 11
M  V30 11 1 11 12
M  V30 12 1 12 13
M  V30 13 1 13 14
M  V30 14 1 2 15
M  V30 15 1 8 3
M  V30 16 1 14 9
M  V30 END BOND
M  V30 BEGIN COLLECTION
M  V30 MDLV30/STERAC1 ATOMS=(2 3 8)
M  V30 END COLLECTION
M  V30 END CTAB
M  END
>  <id>  (603) 
6578d8f9-25a9-4bf1-b8f7-2522e089408a

>  <Version>  (603) 
0

>  <Alias>  (603) 
rel-(3R,4R)Pro(4Cyhex)

>  <Type>  (603) 
amino_acid

>  <Smiles>  (603) 
O=C([C@@H]1CN([*:1])C[C@H]1C1CCCCC1)[*:2] |&1:2,7|

>  <ProtectedSmiles>  (603) 
O=C(O)[C@@H]1CN(C(=O)OCC2c3ccccc3-c3ccccc32)C[C@H]1C1CCCCC1 |&1:3,24|

>  <CAS>  (603) 
2307777-53-1

>  <User>  (603) 
cs@orbismedicines.com

>  <StereoComment>  (603) 
rac-trans

>  <Name>  (603) 
rel-(3R,4R)-4-cyclohexyl-1-{[(9H-fluoren-9-yl)methoxy]carbonyl}pyrrolidine-3-carboxylic acid

>  <Code>  (603) 
rel-(3R,4R)Pro(4Cyhex)

>  <AliasLowerCase>  (603) 
rel-(3r,4r)pro(4cyhex)

>  <LatestVersion>  (603) 
1.0

>  <createdAt>  (603) 
2026-01-14T11:32:28.379Z

>  <updatedAt>  (603) 
2026-02-10T09:18:08.559Z

>  <NumRotatableBonds>  (603) 
2

>  <is_N_methyl>  (603) 
False

>  <is_a_methyl>  (603) 
False

>  <is_alpha_aa>  (603) 
False

>  <is_beta_aa>  (603) 
True

>  <is_S100_aa>  (603) 
False

>  <Murcko_SMILES>  (603) 
C1CCC([C@H]2CCNC2)CC1 |&1:4|

$$$$

     RDKit          2D

  0  0  0  0  0  0  0  0  0  0999 V3000
M  V30 BEGIN CTAB
M  V30 COUNTS 15 16 0 0 0
M  V30 BEGIN ATOM
M  V30 1 O -1.581022 -3.165545 0.000000 0
M  V30 2 C -0.577326 -4.280262 0.000000 0
M  V30 3 C 0.889895 -3.968394 0.000000 0
M  V30 4 C 2.004612 -4.972090 0.000000 0
M  V30 5 N 3.303650 -4.222090 0.000000 0
M  V30 6 "NOT [H]" 4.673969 -4.832195 0.000000 1
M  V30 7 C 2.991783 -2.754869 0.000000 0
M  V30 8 C 1.500000 -2.598076 0.000000 0
M  V30 9 C 0.750000 -1.299038 0.000000 0
M  V30 10 C 1.500000 0.000000 0.000000 0
M  V30 11 C 0.750000 1.299038 0.000000 0
M  V30 12 C -0.750000 1.299038 0.000000 0
M  V30 13 C -1.500000 0.000000 0.000000 0
M  V30 14 C -0.750000 -1.299038 0.000000 0
M  V30 15 "NOT [H]" -1.040852 -5.706847 0.000000 2
M  V30 END ATOM
M  V30 BEGIN BOND
M  V30 1 2 1 2
M  V30 2 1 3 2 CFG=1
M  V30 3 1 3 4
M  V30 4 1 4 5
M  V30 5 1 5 6
M  V30 6 1 5 7
M  V30 7 1 7 8
M  V30 8 1 8 9 CFG=3
M  V30 9 1 9 10
M  V30 10 1 10 11
M  V30 11 1 11 12
M  V30 12 1 12 13
M  V30 13 1 13 14
M  V30 14 1 2 15
M  V30 15 1 8 3
M  V30 16 1 14 9
M  V30 END BOND
M  V30 BEGIN COLLECTION
M  V30 MDLV30/STERAC1 ATOMS=(2 3 8)
M  V30 END COLLECTION
M  V30 END CTAB
M  END
>  <id>  (604) 
6578d8f9-25a9-4bf1-b8f7-2522e089408a

>  <Version>  (604) 
1

>  <Alias>  (604) 
rel-(3R,4R)Pro(4Cyhex)

>  <Type>  (604) 
amino_acid

>  <Smiles>  (604) 
O=C([C@@H]1CN([*:1])C[C@H]1C1CCCCC1)[*:2] |&1:2,7|

>  <ProtectedSmiles>  (604) 
O=C(O)[C@@H]1CN(C(=O)OCC2c3ccccc3-c3ccccc32)C[C@H]1C1CCCCC1 |&1:3,24|

>  <CAS>  (604) 
2307777-53-1

>  <User>  (604) 
mischa.s

>  <StereoComment>  (604) 
racemic

>  <Name>  (604) 
rel-(3R,4R)-4-cyclohexyl-1-{[(9H-fluoren-9-yl)methoxy]carbonyl}pyrrolidine-3-carboxylic acid

>  <Code>  (604) 
rel-(3R,4R)Pro(4Cyhex)

>  <AliasLowerCase>  (604) 
rel-(3r,4r)pro(4cyhex)

>  <LatestVersion>  (604) 
nan

>  <createdAt>  (604) 
2026-01-14T11:32:28.379Z

>  <updatedAt>  (604) 
2026-01-14T11:32:28.379Z

>  <NumRotatableBonds>  (604) 
2

>  <is_N_methyl>  (604) 
False

>  <is_a_methyl>  (604) 
False

>  <is_alpha_aa>  (604) 
False

>  <is_beta_aa>  (604) 
True

>  <is_S100_aa>  (604) 
False

>  <Murcko_SMILES>  (604) 
C1CCC([C@H]2CCNC2)CC1 |&1:4|

$$$$

     RDKit          2D

 17 17  0  0  0  0  0  0  0  0999 V2000
    6.0000    0.0000    0.0000 O   0  0  0  0  0  0  0  0  0  0  0  0
    5.2500   -1.2990    0.0000 C   0  0  0  0  0  0  0  0  0  0  0  0
    3.7500   -1.2990    0.0000 C   0  0  0  0  0  0  0  0  0  0  0  0
    3.0000    0.0000    0.0000 C   0  0  0  0  0  0  0  0  0  0  0  0
    3.7500    1.2990    0.0000 N   0  0  0  0  0  0  0  0  0  0  0  0
    5.2500    1.2990    0.0000 R   0  0  0  0  0  1  0  0  0  1  0  0
    1.5000    0.0000    0.0000 C   0  0  0  0  0  0  0  0  0  0  0  0
    0.7500   -1.2990    0.0000 C   0  0  0  0  0  0  0  0  0  0  0  0
   -0.7500   -1.2990    0.0000 C   0  0  0  0  0  0  0  0  0  0  0  0
   -1.5000    0.0000    0.0000 C   0  0  0  0  0  0  0  0  0  0  0  0
   -0.7500    1.2990    0.0000 C   0  0  0  0  0  0  0  0  0  0  0  0
   -1.5000    2.5981    0.0000 C   0  0  0  0  0  0  0  0  0  0  0  0
   -2.2500    3.8971    0.0000 F   0  0  0  0  0  0  0  0  0  0  0  0
   -0.2010    3.3481    0.0000 F   0  0  0  0  0  0  0  0  0  0  0  0
   -2.7990    1.8481    0.0000 F   0  0  0  0  0  0  0  0  0  0  0  0
    0.7500    1.2990    0.0000 C   0  0  0  0  0  0  0  0  0  0  0  0
    6.0000   -2.5981    0.0000 R   0  0  0  0  0  1  0  0  0  2  0  0
  1  2  2  0
  2  3  1  0
  4  3  1  6
  4  5  1  0
  5  6  1  0
  4  7  1  0
  7  8  2  0
  8  9  1  0
  9 10  2  0
 10 11  1  0
 11 12  1  0
 12 13  1  0
 12 14  1  0
 12 15  1  0
 11 16  2  0
  2 17  1  0
 16  7  1  0
M  END
>  <id>  (605) 
39ebe843-e9c1-4400-a2b5-d5bf38766fa8

>  <Version>  (605) 
0

>  <Alias>  (605) 
(3R)-m(CF3)3PhPA

>  <Type>  (605) 
amino_acid

>  <Smiles>  (605) 
O=C(C[C@@H](N[*:1])c1cccc(C(F)(F)F)c1)[*:2]

>  <ProtectedSmiles>  (605) 
O=C(O)C[C@@H](NC(=O)OCC1c2ccccc2-c2ccccc21)c1cccc(C(F)(F)F)c1

>  <CAS>  (605) 
517905-87-2

>  <User>  (605) 
mischa.s

>  <StereoComment>  (605) 
as drawn

>  <Name>  (605) 
(3R)-3-({[(9H-fluoren-9-yl)methoxy]carbonyl}amino)-3-[3-(trifluoromethyl)phenyl]propanoic acid

>  <Code>  (605) 
(3R)-m(CF3)3PhPA

>  <AliasLowerCase>  (605) 
(3r)-m(cf3)3phpa

>  <LatestVersion>  (605) 
0.0

>  <createdAt>  (605) 
2026-01-14T11:33:06.587Z

>  <updatedAt>  (605) 
2026-01-14T11:33:06.587Z

>  <NumRotatableBonds>  (605) 
4

>  <is_N_methyl>  (605) 
False

>  <is_a_methyl>  (605) 
False

>  <is_alpha_aa>  (605) 
False

>  <is_beta_aa>  (605) 
True

>  <is_S100_aa>  (605) 
False

>  <Murcko_SMILES>  (605) 
c1ccccc1

$$$$

     RDKit          2D

 13 13  0  0  0  0  0  0  0  0999 V2000
    3.0000   -2.5981    0.0000 O   0  0  0  0  0  0  0  0  0  0  0  0
    3.7500   -1.2990    0.0000 C   0  0  0  0  0  0  0  0  0  0  0  0
    3.0000    0.0000    0.0000 C   0  0  0  0  0  0  0  0  0  0  0  0
    1.5000    0.0000    0.0000 C   0  0  0  0  0  0  0  0  0  0  0  0
    0.7500   -1.2990    0.0000 C   0  0  0  0  0  0  0  0  0  0  0  0
   -0.7500   -1.2990    0.0000 S   0  0  0  0  0  0  0  0  0  0  0  0
   -0.4895   -2.7762    0.0000 O   0  0  0  0  0  0  0  0  0  0  0  0
   -2.1595   -1.8121    0.0000 O   0  0  0  0  0  0  0  0  0  0  0  0
   -1.5000    0.0000    0.0000 C   0  0  0  0  0  0  0  0  0  0  0  0
   -0.7500    1.2990    0.0000 C   0  0  0  0  0  0  0  0  0  0  0  0
    0.7500    1.2990    0.0000 N   0  0  0  0  0  0  0  0  0  0  0  0
    1.5000    2.5981    0.0000 R   0  0  0  0  0  1  0  0  0  1  0  0
    5.2500   -1.2990    0.0000 R   0  0  0  0  0  1  0  0  0  2  0  0
  1  2  2  0
  2  3  1  0
  3  4  1  0
  4  5  1  0
  5  6  1  0
  6  7  2  0
  6  8  2  0
  6  9  1  0
  9 10  1  0
 10 11  1  0
 11 12  1  0
  2 13  1  0
 11  4  1  0
M  END
>  <id>  (606) 
1b8aedb7-91e0-4ad8-8438-c4021c51793e

>  <Version>  (606) 
0

>  <Alias>  (606) 
Dioxothiomorph

>  <Type>  (606) 
amino_acid

>  <Smiles>  (606) 
O=C(CC1CS(=O)(=O)CCN1[*:1])[*:2]

>  <ProtectedSmiles>  (606) 
O=C(O)CC1CS(=O)(=O)CCN1C(=O)OCC1c2ccccc2-c2ccccc21

>  <CAS>  (606) 
1503338-67-7

>  <User>  (606) 
Sevan.habeshian@orbismedicines.com

>  <StereoComment>  (606) 
as drawn

>  <Name>  (606) 
N/A

>  <Code>  (606) 
Dioxothiomorph

>  <AliasLowerCase>  (606) 
dioxothiomorph

>  <LatestVersion>  (606) 
0.0

>  <createdAt>  (606) 
2026-02-13T09:56:35.394Z

>  <updatedAt>  (606) 
2026-02-13T09:56:35.394Z

>  <NumRotatableBonds>  (606) 
2

>  <is_N_methyl>  (606) 
False

>  <is_a_methyl>  (606) 
False

>  <is_alpha_aa>  (606) 
False

>  <is_beta_aa>  (606) 
True

>  <is_S100_aa>  (606) 
False

>  <Murcko_SMILES>  (606) 
O=S1(=O)CCNCC1

$$$$

     RDKit          2D

 12 12  0  0  0  0  0  0  0  0999 V2000
    2.7760    2.5981    0.0000 O   0  0  0  0  0  0  0  0  0  0  0  0
    3.5260    1.2990    0.0000 C   0  0  0  0  0  0  0  0  0  0  0  0
    2.7760    0.0000    0.0000 C   0  0  0  0  0  0  0  0  0  0  0  0
    1.2760    0.0000    0.0000 N   0  0  0  0  0  0  0  0  0  0  0  0
    0.3943    1.2135    0.0000 C   0  0  0  0  0  0  0  0  0  0  0  0
   -1.0323    0.7500    0.0000 C   0  0  0  0  0  0  0  0  0  0  0  0
   -1.0323   -0.7500    0.0000 N   0  0  0  0  0  0  0  0  0  0  0  0
    0.3943   -1.2135    0.0000 C   0  0  0  0  0  0  0  0  0  0  0  0
    0.8578   -2.6401    0.0000 C   0  0  0  0  0  0  0  0  0  0  0  0
   -0.1459   -3.7548    0.0000 N   0  0  0  0  0  0  0  0  0  0  0  0
    0.3177   -5.1814    0.0000 R   0  0  0  0  0  1  0  0  0  1  0  0
    5.0260    1.2990    0.0000 R   0  0  0  0  0  1  0  0  0  2  0  0
  1  2  2  0
  2  3  1  0
  3  4  1  0
  4  5  1  0
  5  6  2  0
  6  7  1  0
  7  8  2  0
  8  9  1  0
  9 10  1  0
 10 11  1  0
  2 12  1  0
  8  4  1  0
M  END
>  <id>  (607) 
709774e0-b3bd-4822-a56c-0f30750b9b7d

>  <Version>  (607) 
0

>  <Alias>  (607) 
2AmMeImid-AcOH

>  <Type>  (607) 
amino_acid

>  <Smiles>  (607) 
O=C(Cn1ccnc1CN[*:1])[*:2]

>  <ProtectedSmiles>  (607) 
O=C(O)Cn1ccnc1CNC(=O)OCC1c2ccccc2-c2ccccc21

>  <CAS>  (607) 
2138389-87-2

>  <User>  (607) 
Sevan.habeshian@orbismedicines.com

>  <StereoComment>  (607) 
as drawn

>  <Name>  (607) 
N/A

>  <Code>  (607) 
2AmMeImid-AcOH

>  <AliasLowerCase>  (607) 
2ammeimid-acoh

>  <LatestVersion>  (607) 
0.0

>  <createdAt>  (607) 
2026-02-13T09:56:36.347Z

>  <updatedAt>  (607) 
2026-02-13T09:56:36.347Z

>  <NumRotatableBonds>  (607) 
4

>  <is_N_methyl>  (607) 
False

>  <is_a_methyl>  (607) 
False

>  <is_alpha_aa>  (607) 
False

>  <is_beta_aa>  (607) 
False

>  <is_S100_aa>  (607) 
False

>  <Murcko_SMILES>  (607) 
c1c[nH]cn1

$$$$

     RDKit          2D

 10 10  0  0  0  0  0  0  0  0999 V2000
    2.7760    0.0000    0.0000 C   0  0  0  0  0  0  0  0  0  0  0  0
    1.2760    0.0000    0.0000 C   0  0  0  0  0  0  0  0  0  0  0  0
    0.3943    1.2135    0.0000 C   0  0  0  0  0  0  0  0  0  0  0  0
   -1.0323    0.7500    0.0000 N   0  0  0  0  0  0  0  0  0  0  0  0
   -2.2458    1.6317    0.0000 R   0  0  0  0  0  1  0  0  0  1  0  0
   -1.0323   -0.7500    0.0000 C   0  0  0  0  0  0  0  0  0  0  0  0
    0.3943   -1.2135    0.0000 C   0  0  0  0  0  0  0  0  0  0  0  0
    0.8578   -2.6401    0.0000 C   0  0  0  0  0  0  0  0  0  0  0  0
    2.3250   -2.9520    0.0000 O   0  0  0  0  0  0  0  0  0  0  0  0
   -0.1459   -3.7548    0.0000 R   0  0  0  0  0  1  0  0  0  2  0  0
  2  1  1  1
  2  3  1  0
  3  4  1  0
  4  5  1  0
  4  6  1  0
  6  7  1  0
  7  8  1  6
  8  9  2  0
  8 10  1  0
  7  2  1  0
M  END
>  <id>  (608) 
a4bc9141-dc6e-46bc-ac0a-c8244e0928d4

>  <Version>  (608) 
0

>  <Alias>  (608) 
rac4MePyrCA

>  <Type>  (608) 
amino_acid

>  <Smiles>  (608) 
C[C@@H]1CN([*:1])C[C@H]1C(=O)[*:2]

>  <ProtectedSmiles>  (608) 
C[C@@H]1CN(C(=O)OCC2c3ccccc3-c3ccccc32)C[C@H]1C(=O)O

>  <CAS>  (608) 
1690085-29-0

>  <User>  (608) 
Sevan.habeshian@orbismedicines.com

>  <StereoComment>  (608) 
as drawn

>  <Name>  (608) 
N/A

>  <Code>  (608) 
rac4MePyrCA

>  <AliasLowerCase>  (608) 
rac4mepyrca

>  <LatestVersion>  (608) 
0.0

>  <createdAt>  (608) 
2026-02-13T09:56:35.395Z

>  <updatedAt>  (608) 
2026-02-13T09:56:35.395Z

>  <NumRotatableBonds>  (608) 
1

>  <is_N_methyl>  (608) 
False

>  <is_a_methyl>  (608) 
False

>  <is_alpha_aa>  (608) 
False

>  <is_beta_aa>  (608) 
True

>  <is_S100_aa>  (608) 
False

>  <Murcko_SMILES>  (608) 
C1CCNC1

$$$$

     RDKit          2D

 14 15  0  0  0  0  0  0  0  0999 V2000
    2.7760    0.0000    0.0000 C   0  0  0  0  0  0  0  0  0  0  0  0
    1.2760    0.0000    0.0000 C   0  0  0  0  0  0  0  0  0  0  0  0
    0.3943    1.2135    0.0000 N   0  0  0  0  0  0  0  0  0  0  0  0
   -1.0323    0.7500    0.0000 N   0  0  0  0  0  0  0  0  0  0  0  0
   -1.0323   -0.7500    0.0000 C   0  0  0  0  0  0  0  0  0  0  0  0
    0.3943   -1.2135    0.0000 N   0  0  0  0  0  0  0  0  0  0  0  0
    0.7062   -2.6807    0.0000 C   0  0  0  0  0  0  0  0  0  0  0  0
   -0.4086   -3.6844    0.0000 C   0  0  0  0  0  0  0  0  0  0  0  0
   -0.0967   -5.1517    0.0000 C   0  0  0  0  0  0  0  0  0  0  0  0
    1.3299   -5.6152    0.0000 O   0  0  0  0  0  0  0  0  0  0  0  0
   -1.2114   -6.1554    0.0000 R   0  0  0  0  0  1  0  0  0  2  0  0
   -1.8351   -3.2209    0.0000 N   0  0  0  0  0  0  0  0  0  0  0  0
   -2.9499   -4.2246    0.0000 R   0  0  0  0  0  1  0  0  0  1  0  0
   -2.1470   -1.7537    0.0000 C   0  0  0  0  0  0  0  0  0  0  0  0
  1  2  1  0
  2  3  2  0
  3  4  1  0
  4  5  2  0
  5  6  1  0
  6  7  1  0
  7  8  1  0
  8  9  1  0
  9 10  2  0
  9 11  1  0
  8 12  1  0
 12 13  1  0
 12 14  1  0
  6  2  1  0
 14  5  1  0
M  END
>  <id>  (609) 
915af5f0-303e-4ceb-a664-3e154e800991

>  <Version>  (609) 
0

>  <Alias>  (609) 
MeTrzPzCA

>  <Type>  (609) 
amino_acid

>  <Smiles>  (609) 
Cc1nnc2n1CC(C(=O)[*:2])N([*:1])C2

>  <ProtectedSmiles>  (609) 
Cc1nnc2n1CC(C(=O)O)N(C(=O)OCC1c3ccccc3-c3ccccc31)C2

>  <CAS>  (609) 
2137472-46-7

>  <User>  (609) 
Sevan.habeshian@orbismedicines.com

>  <StereoComment>  (609) 
as drawn

>  <Name>  (609) 
N/A

>  <Code>  (609) 
MeTrzPzCA

>  <AliasLowerCase>  (609) 
metrzpzca

>  <LatestVersion>  (609) 
0.0

>  <createdAt>  (609) 
2026-02-13T09:56:35.499Z

>  <updatedAt>  (609) 
2026-02-13T09:56:35.499Z

>  <NumRotatableBonds>  (609) 
1

>  <is_N_methyl>  (609) 
False

>  <is_a_methyl>  (609) 
False

>  <is_alpha_aa>  (609) 
True

>  <is_beta_aa>  (609) 
False

>  <is_S100_aa>  (609) 
False

>  <Murcko_SMILES>  (609) 
c1nnc2n1CCNC2

$$$$

     RDKit          2D

 10  9  0  0  0  0  0  0  0  0999 V2000
    7.7942   -0.0000    0.0000 C   0  0  0  0  0  0  0  0  0  0  0  0
    6.4952    0.7500    0.0000 C   0  0  0  0  0  0  0  0  0  0  0  0
    5.1962   -0.0000    0.0000 C   0  0  0  0  0  0  0  0  0  0  0  0
    3.8971    0.7500    0.0000 C   0  0  0  0  0  0  0  0  0  0  0  0
    2.5981   -0.0000    0.0000 C   0  0  0  0  0  0  0  0  0  0  0  0
    1.2990    0.7500    0.0000 N   0  0  0  0  0  0  0  0  0  0  0  0
    0.0000    0.0000    0.0000 R   0  0  0  0  0  1  0  0  0  1  0  0
    2.5981   -1.5000    0.0000 C   0  0  0  0  0  0  0  0  0  0  0  0
    1.2990   -2.2500    0.0000 O   0  0  0  0  0  0  0  0  0  0  0  0
    3.8971   -2.2500    0.0000 R   0  0  0  0  0  1  0  0  0  2  0  0
  1  2  1  0
  2  3  1  0
  3  4  1  0
  5  4  1  6
  5  6  1  0
  6  7  1  0
  5  8  1  0
  8  9  2  0
  8 10  1  0
M  END
>  <id>  (610) 
27d7904e-90c1-4ea6-af57-b32bbd8181fb

>  <Version>  (610) 
0

>  <Alias>  (610) 
D-Nle

>  <Type>  (610) 
amino_acid

>  <Smiles>  (610) 
CCCC[C@@H](N[*:1])C(=O)[*:2]

>  <ProtectedSmiles>  (610) 
CCCC[C@@H](NC(=O)OCC1c2ccccc2-c2ccccc21)C(=O)O

>  <CAS>  (610) 
112883-41-7

>  <User>  (610) 
sevan.h

>  <StereoComment>  (610) 
as drawn

>  <Name>  (610) 
Fmoc-D-Nle-OH

>  <Code>  (610) 
D-Nle

>  <AliasLowerCase>  (610) 
d-nle

>  <LatestVersion>  (610) 
0.0

>  <createdAt>  (610) 
2026-01-14T12:16:25.691Z

>  <updatedAt>  (610) 
2026-01-14T12:16:25.691Z

>  <NumRotatableBonds>  (610) 
5

>  <is_N_methyl>  (610) 
False

>  <is_a_methyl>  (610) 
False

>  <is_alpha_aa>  (610) 
True

>  <is_beta_aa>  (610) 
False

>  <is_S100_aa>  (610) 
False

>  <Murcko_SMILES>  (610) 


$$$$

     RDKit          2D

  9  8  0  0  0  0  0  0  0  0999 V2000
    1.2990   -2.2500    0.0000 O   0  0  0  0  0  0  0  0  0  0  0  0
    2.5981   -1.5000    0.0000 C   0  0  0  0  0  0  0  0  0  0  0  0
    2.5981   -0.0000    0.0000 C   0  0  0  0  0  0  0  0  0  0  0  0
    3.8971    0.7500    0.0000 C   0  0  0  0  0  0  0  0  0  0  0  0
    5.1962   -0.0000    0.0000 C   0  0  0  0  0  0  0  0  0  0  0  0
    6.4952    0.7500    0.0000 O   0  0  0  0  0  0  0  0  0  0  0  0
    1.2990    0.7500    0.0000 N   0  0  0  0  0  0  0  0  0  0  0  0
    0.0000    0.0000    0.0000 R   0  0  0  0  0  1  0  0  0  1  0  0
    3.8971   -2.2500    0.0000 R   0  0  0  0  0  1  0  0  0  2  0  0
  1  2  2  0
  2  3  1  0
  3  4  1  6
  4  5  1  0
  5  6  1  0
  3  7  1  0
  7  8  1  0
  2  9  1  0
M  END
>  <id>  (611) 
ed152114-632d-405f-b122-3575fe1b7931

>  <Version>  (611) 
0

>  <Alias>  (611) 
D-hSer

>  <Type>  (611) 
amino_acid

>  <Smiles>  (611) 
O=C([C@@H](CCO)N[*:1])[*:2]

>  <ProtectedSmiles>  (611) 
O=C(N[C@H](CCOC(c1ccccc1)(c1ccccc1)c1ccccc1)C(=O)O)OCC1c2ccccc2-c2ccccc21

>  <CAS>  (611) 
257886-01-4

>  <User>  (611) 
sevan.h

>  <StereoComment>  (611) 
as drawn

>  <Name>  (611) 
 Fmoc-d-hse(trt)-oh

>  <Code>  (611) 
D-hSer

>  <AliasLowerCase>  (611) 
d-hser

>  <LatestVersion>  (611) 
0.0

>  <createdAt>  (611) 
2026-01-14T11:38:06.779Z

>  <updatedAt>  (611) 
2026-01-14T11:38:06.779Z

>  <NumRotatableBonds>  (611) 
4

>  <is_N_methyl>  (611) 
False

>  <is_a_methyl>  (611) 
False

>  <is_alpha_aa>  (611) 
True

>  <is_beta_aa>  (611) 
False

>  <is_S100_aa>  (611) 
False

>  <Murcko_SMILES>  (611) 


$$$$

     RDKit          2D

 10  9  0  0  0  0  0  0  0  0999 V2000
    0.0000   -4.5000    0.0000 C   0  0  0  0  0  0  0  0  0  0  0  0
    1.2990   -3.7500    0.0000 C   0  0  0  0  0  0  0  0  0  0  0  0
    1.2990   -2.2500    0.0000 C   0  0  0  0  0  0  0  0  0  0  0  0
    2.5981   -1.5000    0.0000 N   0  0  0  0  0  0  0  0  0  0  0  0
    2.5981   -0.0000    0.0000 C   0  0  0  0  0  0  0  0  0  0  0  0
    3.8971    0.7500    0.0000 C   0  0  0  0  0  0  0  0  0  0  0  0
    1.2990    0.7500    0.0000 C   0  0  0  0  0  0  0  0  0  0  0  0
    1.2990    2.2500    0.0000 O   0  0  0  0  0  0  0  0  0  0  0  0
    0.0000    0.0000    0.0000 R   0  0  0  0  0  1  0  0  0  2  0  0
    3.8971   -2.2500    0.0000 R   0  0  0  0  0  1  0  0  0  1  0  0
  1  2  1  0
  2  3  1  0
  3  4  1  0
  4  5  1  0
  5  6  1  0
  5  7  1  0
  7  8  2  0
  7  9  1  0
  4 10  1  0
M  END
>  <id>  (612) 
669ae7fd-601e-40fe-8255-ad32e2218ee9

>  <Version>  (612) 
0

>  <Alias>  (612) 
rac-N(Propyl)Ala

>  <Type>  (612) 
amino_acid

>  <Smiles>  (612) 
CCCN(C(C)C(=O)[*:2])[*:1]

>  <ProtectedSmiles>  (612) 
CCCN(C(=O)OCC1c2ccccc2-c2ccccc21)C(C)C(=O)O

>  <CAS>  (612) 
2642729-48-2

>  <User>  (612) 
mischa.s

>  <StereoComment>  (612) 
as drawn

>  <Name>  (612) 
2-({[(9H-fluoren-9-yl)methoxy]carbonyl}(propyl)amino)propanoic acid

>  <Code>  (612) 
rac-N(Propyl)Ala

>  <AliasLowerCase>  (612) 
rac-n(propyl)ala

>  <LatestVersion>  (612) 
0.0

>  <createdAt>  (612) 
2026-01-14T11:32:59.454Z

>  <updatedAt>  (612) 
2026-01-14T11:32:59.454Z

>  <NumRotatableBonds>  (612) 
4

>  <is_N_methyl>  (612) 
False

>  <is_a_methyl>  (612) 
False

>  <is_alpha_aa>  (612) 
True

>  <is_beta_aa>  (612) 
False

>  <is_S100_aa>  (612) 
False

>  <Murcko_SMILES>  (612) 


$$$$

     RDKit          2D

 11 11  0  0  0  0  0  0  0  0999 V2000
    3.0000   -2.5981    0.0000 O   0  0  0  0  0  0  0  0  0  0  0  0
    3.7500   -1.2990    0.0000 C   0  0  0  0  0  0  0  0  0  0  0  0
    3.0000    0.0000    0.0000 C   0  0  0  0  0  0  0  0  0  0  0  0
    1.5000    0.0000    0.0000 C   0  0  0  0  0  0  0  0  0  0  0  0
    0.7500   -1.2990    0.0000 C   0  0  0  0  0  0  0  0  0  0  0  0
   -0.7500   -1.2990    0.0000 C   0  0  0  0  0  0  0  0  0  0  0  0
   -1.5000    0.0000    0.0000 C   0  0  0  0  0  0  0  0  0  0  0  0
   -0.7500    1.2990    0.0000 N   0  0  0  0  0  0  0  0  0  0  0  0
   -1.5000    2.5981    0.0000 R   0  0  0  0  0  1  0  0  0  1  0  0
    0.7500    1.2990    0.0000 C   0  0  0  0  0  0  0  0  0  0  0  0
    5.2500   -1.2990    0.0000 R   0  0  0  0  0  1  0  0  0  2  0  0
  1  2  2  0
  2  3  1  0
  3  4  1  0
  4  5  1  0
  5  6  1  0
  6  7  1  0
  7  8  1  0
  8  9  1  0
  8 10  1  0
  2 11  1  0
 10  4  1  0
M  END
>  <id>  (613) 
a31fce27-71de-45db-92c0-41124d18f00d

>  <Version>  (613) 
0

>  <Alias>  (613) 
3Pip

>  <Type>  (613) 
amino_acid

>  <Smiles>  (613) 
O=C(CC1CCCN([*:1])C1)[*:2]

>  <ProtectedSmiles>  (613) 
O=C(O)CC1CCCN(C(=O)OCC2c3ccccc3-c3ccccc32)C1

>  <CAS>  (613) 
885951-96-2

>  <User>  (613) 
sevan.h

>  <StereoComment>  (613) 
as drawn

>  <Name>  (613) 
2-(1-{[(9H-fluoren-9-yl)methoxy]carbonyl}piperidin-3-yl)acetic acid

>  <Code>  (613) 
3Pip

>  <AliasLowerCase>  (613) 
3pip

>  <LatestVersion>  (613) 
0.0

>  <createdAt>  (613) 
2026-01-14T11:32:47.594Z

>  <updatedAt>  (613) 
2026-01-14T11:32:47.594Z

>  <NumRotatableBonds>  (613) 
2

>  <is_N_methyl>  (613) 
False

>  <is_a_methyl>  (613) 
False

>  <is_alpha_aa>  (613) 
False

>  <is_beta_aa>  (613) 
False

>  <is_S100_aa>  (613) 
False

>  <Murcko_SMILES>  (613) 
C1CCNCC1

$$$$

     RDKit          2D

  6  5  0  0  0  0  0  0  0  0999 V2000
    3.8971    2.2500    0.0000 O   0  0  0  0  0  0  0  0  0  0  0  0
    3.8971    0.7500    0.0000 C   0  0  0  0  0  0  0  0  0  0  0  0
    2.5981   -0.0000    0.0000 C   0  0  0  0  0  0  0  0  0  0  0  0
    1.2990    0.7500    0.0000 N   0  0  0  0  0  0  0  0  0  0  0  0
    0.0000    0.0000    0.0000 R   0  0  0  0  0  1  0  0  0  1  0  0
    5.1962   -0.0000    0.0000 R   0  0  0  0  0  1  0  0  0  2  0  0
  1  2  2  0
  2  3  1  0
  3  4  1  0
  4  5  1  0
  2  6  1  0
M  END
>  <id>  (614) 
beac6f7a-32f7-4c05-9da4-3316da652855

>  <Version>  (614) 
0

>  <Alias>  (614) 
Gly

>  <Type>  (614) 
amino_acid

>  <Smiles>  (614) 
O=C(CN[*:1])[*:2]

>  <ProtectedSmiles>  (614) 
O=C(O)CNC(=O)OCC1c2ccccc2-c2ccccc21

>  <CAS>  (614) 
29022-11-5

>  <User>  (614) 
sevan.h

>  <StereoComment>  (614) 
as drawn

>  <Name>  (614) 
Fmoc-Gly-OH

>  <Code>  (614) 
Gly

>  <AliasLowerCase>  (614) 
gly

>  <LatestVersion>  (614) 
0.0

>  <createdAt>  (614) 
2026-01-14T12:17:16.074Z

>  <updatedAt>  (614) 
2026-01-14T12:17:16.074Z

>  <NumRotatableBonds>  (614) 
2

>  <is_N_methyl>  (614) 
False

>  <is_a_methyl>  (614) 
False

>  <is_alpha_aa>  (614) 
True

>  <is_beta_aa>  (614) 
False

>  <is_S100_aa>  (614) 
False

>  <Murcko_SMILES>  (614) 


$$$$

     RDKit          2D

 17 18  0  0  0  0  0  0  0  0999 V2000
    4.1831    6.5422    0.0000 O   0  0  0  0  0  0  0  0  0  0  0  0
    3.0684    7.5459    0.0000 C   0  0  0  0  0  0  0  0  0  0  0  0
    1.6418    7.0824    0.0000 C   0  0  0  0  0  0  0  0  0  0  0  0
    1.3299    5.6152    0.0000 C   0  0  0  0  0  0  0  0  0  0  0  0
   -0.0967    5.1517    0.0000 C   0  0  0  0  0  0  0  0  0  0  0  0
   -0.4086    3.6844    0.0000 C   0  0  0  0  0  0  0  0  0  0  0  0
   -1.8351    3.2209    0.0000 C   0  0  0  0  0  0  0  0  0  0  0  0
   -2.1470    1.7537    0.0000 C   0  0  0  0  0  0  0  0  0  0  0  0
   -1.0323    0.7500    0.0000 C   0  0  0  0  0  0  0  0  0  0  0  0
    0.3943    1.2135    0.0000 C   0  0  0  0  0  0  0  0  0  0  0  0
    0.7062    2.6807    0.0000 C   0  0  0  0  0  0  0  0  0  0  0  0
    1.2760    0.0000    0.0000 O   0  0  0  0  0  0  0  0  0  0  0  0
    0.3943   -1.2135    0.0000 C   0  0  0  0  0  0  0  0  0  0  0  0
   -1.0323   -0.7500    0.0000 O   0  0  0  0  0  0  0  0  0  0  0  0
    2.4446    4.6115    0.0000 N   0  0  0  0  0  0  0  0  0  0  0  0
    3.8712    5.0750    0.0000 R   0  0  0  0  0  1  0  0  0  1  0  0
    3.3802    9.0132    0.0000 R   0  0  0  0  0  1  0  0  0  2  0  0
  1  2  2  0
  2  3  1  0
  3  4  1  0
  4  5  1  0
  5  6  1  0
  6  7  2  0
  7  8  1  0
  8  9  2  0
  9 10  1  0
 10 11  2  0
 10 12  1  0
 12 13  1  0
 13 14  1  0
  4 15  1  0
 15 16  1  0
  2 17  1  0
 11  6  1  0
 14  9  1  0
M  END
>  <id>  (615) 
a300eaf4-13e2-4256-a207-a89471d525cb

>  <Version>  (615) 
0

>  <Alias>  (615) 
rac4(2H-1,3Bdo-5-yl)2ABA

>  <Type>  (615) 
amino_acid

>  <Smiles>  (615) 
O=C(CC(Cc1ccc2c(c1)OCO2)N[*:1])[*:2]

>  <ProtectedSmiles>  (615) 
O=C(O)CC(Cc1ccc2c(c1)OCO2)NC(=O)OCC1c2ccccc2-c2ccccc21

>  <CAS>  (615) 
2385593-37-1

>  <User>  (615) 
mischa.s

>  <StereoComment>  (615) 
as drawn

>  <Name>  (615) 
4-(2H-1,3-benzodioxol-5-yl)-3-({[(9H-fluoren-9-yl)methoxy]carbonyl}amino)butanoic acid

>  <Code>  (615) 
rac4(2H-1,3Bdo-5-yl)2ABA

>  <AliasLowerCase>  (615) 
rac4(2h-1,3bdo-5-yl)2aba

>  <LatestVersion>  (615) 
0.0

>  <createdAt>  (615) 
2026-01-14T11:35:30.266Z

>  <updatedAt>  (615) 
2026-01-14T11:35:30.266Z

>  <NumRotatableBonds>  (615) 
5

>  <is_N_methyl>  (615) 
False

>  <is_a_methyl>  (615) 
False

>  <is_alpha_aa>  (615) 
False

>  <is_beta_aa>  (615) 
True

>  <is_S100_aa>  (615) 
False

>  <Murcko_SMILES>  (615) 
c1ccc2c(c1)OCO2

$$$$

     RDKit          2D

 15 16  0  0  0  0  0  0  0  0999 V2000
   -3.4140    4.5616    0.0000 O   0  0  0  0  0  0  0  0  0  0  0  0
   -4.1640    3.2626    0.0000 C   0  0  0  0  0  0  0  0  0  0  0  0
   -3.4140    1.9635    0.0000 C   0  0  0  0  0  0  0  0  0  0  0  0
   -1.9140    1.9635    0.0000 C   0  0  0  0  0  0  0  0  0  0  0  0
   -1.0323    3.1771    0.0000 C   0  0  0  0  0  0  0  0  0  0  0  0
    0.3943    2.7135    0.0000 S   0  0  0  0  0  0  0  0  0  0  0  0
    1.8861    2.5567    0.0000 O   0  0  0  0  0  0  0  0  0  0  0  0
    0.7062    4.1807    0.0000 O   0  0  0  0  0  0  0  0  0  0  0  0
    0.3943    1.2135    0.0000 C   0  0  0  0  0  0  0  0  0  0  0  0
    1.2760    0.0000    0.0000 C   0  0  0  0  0  0  0  0  0  0  0  0
    0.3943   -1.2135    0.0000 N   0  0  0  0  0  0  0  0  0  0  0  0
    0.8578   -2.6401    0.0000 R   0  0  0  0  0  1  0  0  0  1  0  0
   -1.0323   -0.7500    0.0000 C   0  0  0  0  0  0  0  0  0  0  0  0
   -1.0323    0.7500    0.0000 C   0  0  0  0  0  0  0  0  0  0  0  0
   -5.6640    3.2626    0.0000 R   0  0  0  0  0  1  0  0  0  2  0  0
  1  2  2  0
  2  3  1  0
  4  3  1  6
  4  5  1  0
  5  6  1  0
  6  7  2  0
  6  8  2  0
  6  9  1  0
  9 10  1  1
 10 11  1  0
 11 12  1  0
 11 13  1  0
 14 13  1  1
  2 15  1  0
 14  4  1  0
 14  9  1  0
M  END
>  <id>  (616) 
c763ce4f-9558-4f70-a874-d74d4bc7ecf8

>  <Version>  (616) 
0

>  <Alias>  (616) 
SpiroThiaPyrAcA

>  <Type>  (616) 
amino_acid

>  <Smiles>  (616) 
O=C(C[C@@H]1CS(=O)(=O)[C@H]2CN([*:1])C[C@@H]12)[*:2]

>  <ProtectedSmiles>  (616) 
O=C(O)C[C@@H]1CS(=O)(=O)[C@H]2CN(C(=O)OCC3c4ccccc4-c4ccccc43)C[C@@H]12

>  <CAS>  (616) 
2137852-60-7

>  <User>  (616) 
Sevan.habeshian@orbismedicines.com

>  <StereoComment>  (616) 
rac-cis

>  <Name>  (616) 
N/A

>  <Code>  (616) 
SpiroThiaPyrAcA

>  <AliasLowerCase>  (616) 
spirothiapyraca

>  <LatestVersion>  (616) 
0.0

>  <createdAt>  (616) 
2026-02-13T09:56:36.257Z

>  <updatedAt>  (616) 
2026-02-13T09:56:36.257Z

>  <NumRotatableBonds>  (616) 
2

>  <is_N_methyl>  (616) 
False

>  <is_a_methyl>  (616) 
False

>  <is_alpha_aa>  (616) 
False

>  <is_beta_aa>  (616) 
False

>  <is_S100_aa>  (616) 
False

>  <Murcko_SMILES>  (616) 
O=S1(=O)CC[C@@H]2CNC[C@@H]21

$$$$

     RDKit          2D

 11 11  0  0  0  0  0  0  0  0999 V2000
    2.0788   -2.4709    0.0000 C   0  0  0  0  0  0  0  0  0  0  0  0
    2.3907   -1.0037    0.0000 O   0  0  0  0  0  0  0  0  0  0  0  0
    1.2760    0.0000    0.0000 C   0  0  0  0  0  0  0  0  0  0  0  0
    2.3907    1.0037    0.0000 C   0  0  0  0  0  0  0  0  0  0  0  0
    2.0788    2.4709    0.0000 O   0  0  0  0  0  0  0  0  0  0  0  0
    3.8173    0.5402    0.0000 R   0  0  0  0  0  1  0  0  0  2  0  0
    0.3943    1.2135    0.0000 C   0  0  0  0  0  0  0  0  0  0  0  0
   -1.0323    0.7500    0.0000 C   0  0  0  0  0  0  0  0  0  0  0  0
   -1.0323   -0.7500    0.0000 N   0  0  0  0  0  0  0  0  0  0  0  0
   -2.2458   -1.6317    0.0000 R   0  0  0  0  0  1  0  0  0  1  0  0
    0.3943   -1.2135    0.0000 C   0  0  0  0  0  0  0  0  0  0  0  0
  1  2  1  0
  2  3  1  0
  3  4  1  0
  4  5  2  0
  4  6  1  0
  3  7  1  0
  7  8  1  0
  8  9  1  0
  9 10  1  0
  9 11  1  0
 11  3  1  0
M  END
>  <id>  (617) 
8f6478bc-87fa-4155-aa1d-be9c8cef0315

>  <Version>  (617) 
0

>  <Alias>  (617) 
3MeOPyrCA

>  <Type>  (617) 
amino_acid

>  <Smiles>  (617) 
COC1(C(=O)[*:2])CCN([*:1])C1

>  <ProtectedSmiles>  (617) 
COC1(C(=O)O)CCN(C(=O)OCC2c3ccccc3-c3ccccc32)C1

>  <CAS>  (617) 
2137688-95-8

>  <User>  (617) 
Sevan.habeshian@orbismedicines.com

>  <StereoComment>  (617) 
as drawn

>  <Name>  (617) 
N/A

>  <Code>  (617) 
3MeOPyrCA

>  <AliasLowerCase>  (617) 
3meopyrca

>  <LatestVersion>  (617) 
0.0

>  <createdAt>  (617) 
2026-02-13T09:56:36.288Z

>  <updatedAt>  (617) 
2026-02-13T09:56:36.288Z

>  <NumRotatableBonds>  (617) 
2

>  <is_N_methyl>  (617) 
False

>  <is_a_methyl>  (617) 
False

>  <is_alpha_aa>  (617) 
False

>  <is_beta_aa>  (617) 
True

>  <is_S100_aa>  (617) 
False

>  <Murcko_SMILES>  (617) 
C1CCNC1

$$$$

     RDKit          2D

 12 12  0  0  0  0  0  0  0  0999 V2000
    3.7500    1.2990    0.0000 O   0  0  0  0  0  0  0  0  0  0  0  0
    3.0000    0.0000    0.0000 C   0  0  0  0  0  0  0  0  0  0  0  0
    1.5000    0.0000    0.0000 C   0  0  0  0  0  0  0  0  0  0  0  0
    0.7500   -1.2990    0.0000 C   0  0  0  0  0  0  0  0  0  0  0  0
   -0.7500   -1.2990    0.0000 C   0  0  0  0  0  0  0  0  0  0  0  0
   -1.5000   -2.5981    0.0000 Cl  0  0  0  0  0  0  0  0  0  0  0  0
   -1.5000    0.0000    0.0000 C   0  0  0  0  0  0  0  0  0  0  0  0
   -0.7500    1.2990    0.0000 C   0  0  0  0  0  0  0  0  0  0  0  0
    0.7500    1.2990    0.0000 C   0  0  0  0  0  0  0  0  0  0  0  0
    1.5000    2.5981    0.0000 N   0  0  0  0  0  0  0  0  0  0  0  0
    0.7500    3.8971    0.0000 R   0  0  0  0  0  1  0  0  0  1  0  0
    3.7500   -1.2990    0.0000 R   0  0  0  0  0  1  0  0  0  2  0  0
  1  2  2  0
  2  3  1  0
  3  4  2  0
  4  5  1  0
  5  6  1  0
  5  7  2  0
  7  8  1  0
  8  9  2  0
  9 10  1  0
 10 11  1  0
  2 12  1  0
  9  3  1  0
M  END
>  <id>  (618) 
7bfd7e7f-1169-4cba-b3e1-7b4a2e68c73c

>  <Version>  (618) 
0

>  <Alias>  (618) 
(3Cl)-2Abz

>  <Type>  (618) 
amino_acid

>  <Smiles>  (618) 
O=C(c1cc(Cl)ccc1N[*:1])[*:2]

>  <ProtectedSmiles>  (618) 
O=C(Nc1ccc(Cl)cc1C(=O)O)OCC1c2ccccc2-c2ccccc21

>  <CAS>  (618) 
332121-90-1

>  <User>  (618) 
gontran.s

>  <StereoComment>  (618) 
as drawn

>  <Name>  (618) 
2-(Fmoc-amino)-5-chlorobenzoic acid

>  <Code>  (618) 
(3Cl)-2Abz

>  <AliasLowerCase>  (618) 
(3cl)-2abz

>  <LatestVersion>  (618) 
0.0

>  <createdAt>  (618) 
2026-01-14T11:36:55.165Z

>  <updatedAt>  (618) 
2026-01-14T11:36:55.165Z

>  <NumRotatableBonds>  (618) 
2

>  <is_N_methyl>  (618) 
False

>  <is_a_methyl>  (618) 
False

>  <is_alpha_aa>  (618) 
False

>  <is_beta_aa>  (618) 
False

>  <is_S100_aa>  (618) 
False

>  <Murcko_SMILES>  (618) 
c1ccccc1

$$$$

     RDKit          2D

 10  9  0  0  0  0  0  0  0  0999 V2000
    6.4952    0.7500    0.0000 N   0  0  0  0  0  0  0  0  0  0  0  0
    5.1962   -0.0000    0.0000 C   0  0  0  0  0  0  0  0  0  0  0  0
    5.1962   -1.5000    0.0000 O   0  0  0  0  0  0  0  0  0  0  0  0
    3.8971    0.7500    0.0000 C   0  0  0  0  0  0  0  0  0  0  0  0
    2.5981   -0.0000    0.0000 C   0  0  0  0  0  0  0  0  0  0  0  0
    1.2990    0.7500    0.0000 N   0  0  0  0  0  0  0  0  0  0  0  0
    0.0000    0.0000    0.0000 R   0  0  0  0  0  1  0  0  0  1  0  0
    2.5981   -1.5000    0.0000 C   0  0  0  0  0  0  0  0  0  0  0  0
    1.2990   -2.2500    0.0000 O   0  0  0  0  0  0  0  0  0  0  0  0
    3.8971   -2.2500    0.0000 R   0  0  0  0  0  1  0  0  0  2  0  0
  1  2  1  0
  2  3  2  0
  2  4  1  0
  4  5  1  0
  5  6  1  0
  6  7  1  0
  5  8  1  0
  8  9  2  0
  8 10  1  0
M  END
>  <id>  (619) 
213950d7-ca08-4cdf-a718-c97cb0b5ade5

>  <Version>  (619) 
0

>  <Alias>  (619) 
rac-Asn_UP

>  <Type>  (619) 
amino_acid

>  <Smiles>  (619) 
NC(=O)CC(N[*:1])C(=O)[*:2]

>  <ProtectedSmiles>  (619) 
NC(=O)CC(NC(=O)OCC1c2ccccc2-c2ccccc21)C(=O)O

>  <CAS>  (619) 
157355-73-2

>  <User>  (619) 
Sevan.habeshian@orbismedicines.com

>  <StereoComment>  (619) 
as drawn

>  <Name>  (619) 
N/A

>  <Code>  (619) 
rac-Asn_UP

>  <AliasLowerCase>  (619) 
rac-asn_up

>  <LatestVersion>  (619) 
0.0

>  <createdAt>  (619) 
2026-02-13T09:56:35.394Z

>  <updatedAt>  (619) 
2026-02-13T09:56:35.394Z

>  <NumRotatableBonds>  (619) 
4

>  <is_N_methyl>  (619) 
False

>  <is_a_methyl>  (619) 
False

>  <is_alpha_aa>  (619) 
True

>  <is_beta_aa>  (619) 
False

>  <is_S100_aa>  (619) 
False

>  <Murcko_SMILES>  (619) 


$$$$

     RDKit          2D

  9  8  0  0  0  0  0  0  0  0999 V2000
    5.1962   -0.0000    0.0000 C   0  0  0  0  0  0  0  0  0  0  0  0
    3.8971    0.7500    0.0000 C   0  0  0  0  0  0  0  0  0  0  0  0
    3.8971    2.2500    0.0000 C   0  0  0  0  0  0  0  0  0  0  0  0
    2.5981   -0.0000    0.0000 C   0  0  0  0  0  0  0  0  0  0  0  0
    1.2990    0.7500    0.0000 N   0  0  0  0  0  0  0  0  0  0  0  0
    0.0000    0.0000    0.0000 R   0  0  0  0  0  1  0  0  0  1  0  0
    2.5981   -1.5000    0.0000 C   0  0  0  0  0  0  0  0  0  0  0  0
    1.2990   -2.2500    0.0000 O   0  0  0  0  0  0  0  0  0  0  0  0
    3.8971   -2.2500    0.0000 R   0  0  0  0  0  1  0  0  0  2  0  0
  1  2  1  0
  2  3  1  0
  2  4  1  0
  4  5  1  0
  5  6  1  0
  4  7  1  0
  7  8  2  0
  7  9  1  0
M  END
>  <id>  (620) 
7456d1cf-07bf-4b24-bce8-3eadf1c37c75

>  <Version>  (620) 
0

>  <Alias>  (620) 
rac-Val

>  <Type>  (620) 
amino_acid

>  <Smiles>  (620) 
CC(C)C(N[*:1])C(=O)[*:2]

>  <ProtectedSmiles>  (620) 
CC(C)C(NC(=O)OCC1c2ccccc2-c2ccccc21)C(=O)O

>  <CAS>  (620) 
126727-02-4

>  <User>  (620) 
clement.gensous@orbismedicines.com

>  <StereoComment>  (620) 
as drawn

>  <Name>  (620) 
rac-Val

>  <Code>  (620) 
rac-Val

>  <AliasLowerCase>  (620) 
rac-val

>  <LatestVersion>  (620) 
0.0

>  <createdAt>  (620) 
2026-01-15T09:28:50.679Z

>  <updatedAt>  (620) 
2026-01-15T09:28:50.679Z

>  <NumRotatableBonds>  (620) 
3

>  <is_N_methyl>  (620) 
False

>  <is_a_methyl>  (620) 
False

>  <is_alpha_aa>  (620) 
True

>  <is_beta_aa>  (620) 
False

>  <is_S100_aa>  (620) 
False

>  <Murcko_SMILES>  (620) 


$$$$

     RDKit          2D

 13 12  0  0  0  0  0  0  0  0999 V2000
    6.4952   -2.2500    0.0000 C   0  0  0  0  0  0  0  0  0  0  0  0
    5.1962   -1.5000    0.0000 C   0  0  0  0  0  0  0  0  0  0  0  0
    5.1962   -0.0000    0.0000 C   0  0  0  0  0  0  0  0  0  0  0  0
    3.8971    0.7500    0.0000 C   0  0  0  0  0  0  0  0  0  0  0  0
    2.5981   -0.0000    0.0000 C   0  0  0  0  0  0  0  0  0  0  0  0
    1.2990    0.7500    0.0000 N   0  0  0  0  0  0  0  0  0  0  0  0
    0.0000    0.0000    0.0000 R   0  0  0  0  0  1  0  0  0  1  0  0
    2.5981   -1.5000    0.0000 C   0  0  0  0  0  0  0  0  0  0  0  0
    3.8971   -2.2500    0.0000 N   0  0  0  0  0  0  0  0  0  0  0  0
    1.2990   -2.2500    0.0000 O   0  0  0  0  0  0  0  0  0  0  0  0
    6.4952    0.7500    0.0000 C   0  0  0  0  0  0  0  0  0  0  0  0
    6.4952    2.2500    0.0000 O   0  0  0  0  0  0  0  0  0  0  0  0
    7.7942   -0.0000    0.0000 R   0  0  0  0  0  1  0  0  0  2  0  0
  1  2  1  0
  3  2  1  1
  3  4  1  0
  5  4  1  1
  5  6  1  0
  6  7  1  0
  5  8  1  0
  8  9  1  0
  8 10  2  0
  3 11  1  0
 11 12  2  0
 11 13  1  0
M  END
>  <id>  (621) 
fae2c66a-5205-40e6-b07c-8d5e4c486e1d

>  <Version>  (621) 
0

>  <Alias>  (621) 
(Et)Gln-NH2

>  <Type>  (621) 
amino_acid

>  <Smiles>  (621) 
CC[C@@H](C[C@H](N[*:1])C(N)=O)C(=O)[*:2]

>  <ProtectedSmiles>  (621) 
CC[C@@H](C[C@H](NC(=O)OCC1c2ccccc2-c2ccccc21)C(N)=O)C(=O)O

>  <CAS>  (621) 


>  <User>  (621) 
sevan.h

>  <StereoComment>  (621) 
as drawn

>  <Name>  (621) 
(2S,4S)-2-ethyl-5-Amino-(4-Fmoc-amino)-5-oxopentanoic acid

>  <Code>  (621) 
(Et)Gln-NH2

>  <AliasLowerCase>  (621) 
(et)gln-nh2

>  <LatestVersion>  (621) 
0.0

>  <createdAt>  (621) 
2026-01-14T11:37:13.878Z

>  <updatedAt>  (621) 
2026-01-14T11:37:13.878Z

>  <NumRotatableBonds>  (621) 
6

>  <is_N_methyl>  (621) 
False

>  <is_a_methyl>  (621) 
False

>  <is_alpha_aa>  (621) 
False

>  <is_beta_aa>  (621) 
False

>  <is_S100_aa>  (621) 
False

>  <Murcko_SMILES>  (621) 


$$$$

     RDKit          2D

 15 15  0  0  0  0  0  0  0  0999 V2000
    6.0000    0.0000    0.0000 O   0  0  0  0  0  0  0  0  0  0  0  0
    5.2500   -1.2990    0.0000 C   0  0  0  0  0  0  0  0  0  0  0  0
    3.7500   -1.2990    0.0000 C   0  0  0  0  0  0  0  0  0  0  0  0
    3.0000    0.0000    0.0000 C   0  0  0  0  0  0  0  0  0  0  0  0
    1.5000    0.0000    0.0000 C   0  0  0  0  0  0  0  0  0  0  0  0
    0.7500   -1.2990    0.0000 C   0  0  0  0  0  0  0  0  0  0  0  0
   -0.7500   -1.2990    0.0000 C   0  0  0  0  0  0  0  0  0  0  0  0
   -1.5000    0.0000    0.0000 C   0  0  0  0  0  0  0  0  0  0  0  0
   -3.0000    0.0000    0.0000 F   0  0  0  0  0  0  0  0  0  0  0  0
   -0.7500    1.2990    0.0000 C   0  0  0  0  0  0  0  0  0  0  0  0
   -1.5000    2.5981    0.0000 F   0  0  0  0  0  0  0  0  0  0  0  0
    0.7500    1.2990    0.0000 C   0  0  0  0  0  0  0  0  0  0  0  0
    3.0000   -2.5981    0.0000 N   0  0  0  0  0  0  0  0  0  0  0  0
    3.7500   -3.8971    0.0000 R   0  0  0  0  0  1  0  0  0  1  0  0
    6.0000   -2.5981    0.0000 R   0  0  0  0  0  1  0  0  0  2  0  0
  1  2  2  0
  2  3  1  0
  3  4  1  1
  4  5  1  0
  5  6  2  0
  6  7  1  0
  7  8  2  0
  8  9  1  0
  8 10  1  0
 10 11  1  0
 10 12  2  0
  3 13  1  0
 13 14  1  0
  2 15  1  0
 12  5  1  0
M  END
>  <id>  (622) 
dad969ee-bfed-42c6-bb99-bd176dd8d159

>  <Version>  (622) 
0

>  <Alias>  (622) 
Phe(3,4-DiF)

>  <Type>  (622) 
amino_acid

>  <Smiles>  (622) 
O=C([C@H](Cc1ccc(F)c(F)c1)N[*:1])[*:2]

>  <ProtectedSmiles>  (622) 
O=C(N[C@@H](Cc1ccc(F)c(F)c1)C(=O)O)OCC1c2ccccc2-c2ccccc21

>  <CAS>  (622) 
198560-43-9

>  <User>  (622) 
mischa.s

>  <StereoComment>  (622) 
as drawn

>  <Name>  (622) 
Fmoc-3,4-difluoro-L-phenylalanine

>  <Code>  (622) 
Phe(3,4-DiF)

>  <AliasLowerCase>  (622) 
phe(3,4-dif)

>  <LatestVersion>  (622) 
0.0

>  <createdAt>  (622) 
2026-01-14T11:34:59.346Z

>  <updatedAt>  (622) 
2026-01-14T11:34:59.346Z

>  <NumRotatableBonds>  (622) 
4

>  <is_N_methyl>  (622) 
False

>  <is_a_methyl>  (622) 
False

>  <is_alpha_aa>  (622) 
True

>  <is_beta_aa>  (622) 
False

>  <is_S100_aa>  (622) 
False

>  <Murcko_SMILES>  (622) 
c1ccccc1

$$$$

     RDKit          2D

 12 12  0  0  0  0  0  0  0  0999 V2000
    3.0000   -2.5981    0.0000 O   0  0  0  0  0  0  0  0  0  0  0  0
    3.7500   -1.2990    0.0000 C   0  0  0  0  0  0  0  0  0  0  0  0
    3.0000    0.0000    0.0000 C   0  0  0  0  0  0  0  0  0  0  0  0
    1.5000    0.0000    0.0000 C   0  0  0  0  0  0  0  0  0  0  0  0
    0.7500   -1.2990    0.0000 C   0  0  0  0  0  0  0  0  0  0  0  0
   -0.7500   -1.2990    0.0000 C   0  0  0  0  0  0  0  0  0  0  0  0
   -1.5000    0.0000    0.0000 C   0  0  0  0  0  0  0  0  0  0  0  0
   -0.7500    1.2990    0.0000 C   0  0  0  0  0  0  0  0  0  0  0  0
   -1.5000    2.5981    0.0000 N   0  0  0  0  0  0  0  0  0  0  0  0
   -0.7500    3.8971    0.0000 R   0  0  0  0  0  1  0  0  0  1  0  0
    0.7500    1.2990    0.0000 C   0  0  0  0  0  0  0  0  0  0  0  0
    5.2500   -1.2990    0.0000 R   0  0  0  0  0  1  0  0  0  2  0  0
  1  2  2  0
  2  3  1  0
  3  4  1  0
  4  5  2  0
  5  6  1  0
  6  7  2  0
  7  8  1  0
  8  9  1  0
  9 10  1  0
  8 11  2  0
  2 12  1  0
 11  4  1  0
M  END
>  <id>  (623) 
05c1c731-7f01-4c2b-848d-7ea7900c5dd3

>  <Version>  (623) 
0

>  <Alias>  (623) 
3APA

>  <Type>  (623) 
amino_acid

>  <Smiles>  (623) 
O=C(Cc1cccc(N[*:1])c1)[*:2]

>  <ProtectedSmiles>  (623) 
O=C(O)Cc1cccc(NC(=O)OCC2c3ccccc3-c3ccccc32)c1

>  <CAS>  (623) 
186320-08-1

>  <User>  (623) 
emile.b

>  <StereoComment>  (623) 
as drawn

>  <Name>  (623) 
    2-(3-((((9H-Fluoren-9-yl)methoxy)carbonyl)amino)phenyl)acetic acid 

>  <Code>  (623) 
3APA

>  <AliasLowerCase>  (623) 
3apa

>  <LatestVersion>  (623) 
0.0

>  <createdAt>  (623) 
2026-01-14T11:32:53.658Z

>  <updatedAt>  (623) 
2026-01-14T11:32:53.658Z

>  <NumRotatableBonds>  (623) 
3

>  <is_N_methyl>  (623) 
False

>  <is_a_methyl>  (623) 
False

>  <is_alpha_aa>  (623) 
False

>  <is_beta_aa>  (623) 
False

>  <is_S100_aa>  (623) 
False

>  <Murcko_SMILES>  (623) 
c1ccccc1

$$$$

     RDKit          2D

 12 12  0  0  0  0  0  0  0  0999 V2000
    4.6201    3.0111    0.0000 O   0  0  0  0  0  0  0  0  0  0  0  0
    4.9320    1.5439    0.0000 C   0  0  0  0  0  0  0  0  0  0  0  0
    3.8173    0.5402    0.0000 C   0  0  0  0  0  0  0  0  0  0  0  0
    2.3907    1.0037    0.0000 C   0  0  0  0  0  0  0  0  0  0  0  0
    1.2760    0.0000    0.0000 C   0  0  0  0  0  0  0  0  0  0  0  0
    2.3907   -1.0037    0.0000 N   0  0  0  0  0  0  0  0  0  0  0  0
    2.0788   -2.4709    0.0000 R   0  0  0  0  0  1  0  0  0  1  0  0
    0.3943    1.2135    0.0000 C   0  0  0  0  0  0  0  0  0  0  0  0
   -1.0323    0.7500    0.0000 C   0  0  0  0  0  0  0  0  0  0  0  0
   -1.0323   -0.7500    0.0000 O   0  0  0  0  0  0  0  0  0  0  0  0
    0.3943   -1.2135    0.0000 C   0  0  0  0  0  0  0  0  0  0  0  0
    6.3586    1.0803    0.0000 R   0  0  0  0  0  1  0  0  0  2  0  0
  1  2  2  0
  2  3  1  0
  3  4  1  0
  4  5  1  0
  5  6  1  0
  6  7  1  0
  5  8  1  0
  8  9  1  0
  9 10  1  0
 10 11  1  0
  2 12  1  0
 11  5  1  0
M  END
>  <id>  (624) 
366c6f6c-8398-4fca-a241-0fa50a5eee98

>  <Version>  (624) 
0

>  <Alias>  (624) 
Oxol3PPA

>  <Type>  (624) 
amino_acid

>  <Smiles>  (624) 
O=C(CCC1(N[*:1])CCOC1)[*:2]

>  <ProtectedSmiles>  (624) 
O=C(O)CCC1(NC(=O)OCC2c3ccccc3-c3ccccc32)CCOC1

>  <CAS>  (624) 
2219373-89-2

>  <User>  (624) 
Sevan.habeshian@orbismedicines.com

>  <StereoComment>  (624) 
as drawn

>  <Name>  (624) 
N/A

>  <Code>  (624) 
Oxol3PPA

>  <AliasLowerCase>  (624) 
oxol3ppa

>  <LatestVersion>  (624) 
0.0

>  <createdAt>  (624) 
2026-02-13T09:56:36.394Z

>  <updatedAt>  (624) 
2026-02-13T09:56:36.394Z

>  <NumRotatableBonds>  (624) 
4

>  <is_N_methyl>  (624) 
False

>  <is_a_methyl>  (624) 
False

>  <is_alpha_aa>  (624) 
False

>  <is_beta_aa>  (624) 
False

>  <is_S100_aa>  (624) 
False

>  <Murcko_SMILES>  (624) 
C1CCOC1

$$$$

     RDKit          2D

  8  8  0  0  0  0  0  0  0  0999 V2000
    3.3107    1.2990    0.0000 O   0  0  0  0  0  0  0  0  0  0  0  0
    2.5607    0.0000    0.0000 C   0  0  0  0  0  0  0  0  0  0  0  0
    1.0607    0.0000    0.0000 C   0  0  0  0  0  0  0  0  0  0  0  0
   -0.0000   -1.0607    0.0000 C   0  0  0  0  0  0  0  0  0  0  0  0
   -1.0607    0.0000    0.0000 C   0  0  0  0  0  0  0  0  0  0  0  0
    0.0000    1.0607    0.0000 N   0  0  0  0  0  0  0  0  0  0  0  0
    0.0000    2.5607    0.0000 R   0  0  0  0  0  1  0  0  0  1  0  0
    3.3107   -1.2990    0.0000 R   0  0  0  0  0  1  0  0  0  2  0  0
  1  2  2  0
  3  2  1  1
  3  4  1  0
  4  5  1  0
  5  6  1  0
  6  7  1  0
  2  8  1  0
  6  3  1  0
M  END
>  <id>  (625) 
fc1834bd-9c19-459f-a977-14548f76e476

>  <Version>  (625) 
0

>  <Alias>  (625) 
D-2Azet

>  <Type>  (625) 
amino_acid

>  <Smiles>  (625) 
O=C([C@H]1CCN1[*:1])[*:2]

>  <ProtectedSmiles>  (625) 
O=C(O)[C@H]1CCN1C(=O)OCC1c2ccccc2-c2ccccc21

>  <CAS>  (625) 
374791-02-3

>  <User>  (625) 
sevan.h

>  <StereoComment>  (625) 
as drawn

>  <Name>  (625) 
Fmoc-D-azetidine-2-carboxylic acid

>  <Code>  (625) 
D-2Azet

>  <AliasLowerCase>  (625) 
d-2azet

>  <LatestVersion>  (625) 
0.0

>  <createdAt>  (625) 
2026-01-14T12:15:11.155Z

>  <updatedAt>  (625) 
2026-01-14T12:15:11.155Z

>  <NumRotatableBonds>  (625) 
1

>  <is_N_methyl>  (625) 
False

>  <is_a_methyl>  (625) 
False

>  <is_alpha_aa>  (625) 
True

>  <is_beta_aa>  (625) 
False

>  <is_S100_aa>  (625) 
False

>  <Murcko_SMILES>  (625) 
C1CNC1

$$$$

     RDKit          2D

 13 12  0  0  0  0  0  0  0  0999 V2000
    9.0933    2.2500    0.0000 N   0  0  0  0  0  0  0  0  0  0  0  0
    9.0933    0.7500    0.0000 C   0  0  0  0  0  0  0  0  0  0  0  0
   10.3923   -0.0000    0.0000 N   0  0  0  0  0  0  0  0  0  0  0  0
    7.7942   -0.0000    0.0000 N   0  0  0  0  0  0  0  0  0  0  0  0
    6.4952    0.7500    0.0000 C   0  0  0  0  0  0  0  0  0  0  0  0
    5.1962   -0.0000    0.0000 C   0  0  0  0  0  0  0  0  0  0  0  0
    3.8971    0.7500    0.0000 C   0  0  0  0  0  0  0  0  0  0  0  0
    2.5981   -0.0000    0.0000 C   0  0  0  0  0  0  0  0  0  0  0  0
    1.2990    0.7500    0.0000 N   0  0  0  0  0  0  0  0  0  0  0  0
    0.0000    0.0000    0.0000 R   0  0  0  0  0  1  0  0  0  1  0  0
    2.5981   -1.5000    0.0000 C   0  0  0  0  0  0  0  0  0  0  0  0
    1.2990   -2.2500    0.0000 O   0  0  0  0  0  0  0  0  0  0  0  0
    3.8971   -2.2500    0.0000 R   0  0  0  0  0  1  0  0  0  2  0  0
  1  2  2  0
  2  3  1  0
  2  4  1  0
  4  5  1  0
  5  6  1  0
  6  7  1  0
  8  7  1  6
  8  9  1  0
  9 10  1  0
  8 11  1  0
 11 12  2  0
 11 13  1  0
M  END
>  <id>  (626) 
1e43484f-fe0f-4927-931d-b080e0166ed4

>  <Version>  (626) 
0

>  <Alias>  (626) 
D-Arg

>  <Type>  (626) 
amino_acid

>  <Smiles>  (626) 
N=C(N)NCCC[C@@H](N[*:1])C(=O)[*:2]

>  <ProtectedSmiles>  (626) 
Cc1c(C)c(S(=O)(=O)NC(=N)NCCC[C@@H](NC(=O)OCC2c3ccccc3-c3ccccc32)C(=O)O)c(C)c2c1OC(C)(C)C2

>  <CAS>  (626) 
187618-60-6

>  <User>  (626) 
emile.b

>  <StereoComment>  (626) 
as drawn

>  <Name>  (626) 
Fmoc-D-Arg(Pbf)-OH

>  <Code>  (626) 
D-Arg

>  <AliasLowerCase>  (626) 
d-arg

>  <LatestVersion>  (626) 
0.0

>  <createdAt>  (626) 
2026-01-14T11:35:42.263Z

>  <updatedAt>  (626) 
2026-01-14T11:35:42.263Z

>  <NumRotatableBonds>  (626) 
6

>  <is_N_methyl>  (626) 
False

>  <is_a_methyl>  (626) 
False

>  <is_alpha_aa>  (626) 
True

>  <is_beta_aa>  (626) 
False

>  <is_S100_aa>  (626) 
False

>  <Murcko_SMILES>  (626) 


$$$$

     RDKit          2D

 12 12  0  0  0  0  0  0  0  0999 V2000
    3.2286   -2.5981    0.0000 O   0  0  0  0  0  0  0  0  0  0  0  0
    3.9786   -1.2990    0.0000 C   0  0  0  0  0  0  0  0  0  0  0  0
    3.2286   -0.0000    0.0000 C   0  0  0  0  0  0  0  0  0  0  0  0
    1.7286    0.0000    0.0000 N   0  0  0  0  0  0  0  0  0  0  0  0
    1.0777    1.3515    0.0000 C   0  0  0  0  0  0  0  0  0  0  0  0
   -0.3846    1.6852    0.0000 C   0  0  0  0  0  0  0  0  0  0  0  0
   -1.5574    0.7500    0.0000 C   0  0  0  0  0  0  0  0  0  0  0  0
   -1.5574   -0.7500    0.0000 N   0  0  0  0  0  0  0  0  0  0  0  0
   -2.9088   -1.4008    0.0000 R   0  0  0  0  0  1  0  0  0  1  0  0
   -0.3846   -1.6852    0.0000 C   0  0  0  0  0  0  0  0  0  0  0  0
    1.0777   -1.3515    0.0000 C   0  0  0  0  0  0  0  0  0  0  0  0
    5.4786   -1.2990    0.0000 R   0  0  0  0  0  1  0  0  0  2  0  0
  1  2  2  0
  2  3  1  0
  3  4  1  0
  4  5  1  0
  5  6  1  0
  6  7  1  0
  7  8  1  0
  8  9  1  0
  8 10  1  0
 10 11  1  0
  2 12  1  0
 11  4  1  0
M  END
>  <id>  (627) 
31087c88-0bfc-4993-b9ad-e2a6b0a822bb

>  <Version>  (627) 
0

>  <Alias>  (627) 
N-Azep-Ac

>  <Type>  (627) 
amino_acid

>  <Smiles>  (627) 
O=C(CN1CCCN([*:1])CC1)[*:2]

>  <ProtectedSmiles>  (627) 
O=C(O)CN1CCCN(C(=O)OCC2c3ccccc3-c3ccccc32)CC1.[Cl]

>  <CAS>  (627) 
2172587-06-1

>  <User>  (627) 
Sevan.habeshian@orbismedicines.com

>  <StereoComment>  (627) 
as drawn

>  <Name>  (627) 
N/A

>  <Code>  (627) 
N-Azep-Ac

>  <AliasLowerCase>  (627) 
n-azep-ac

>  <LatestVersion>  (627) 
0.0

>  <createdAt>  (627) 
2026-02-13T09:56:36.279Z

>  <updatedAt>  (627) 
2026-02-13T09:56:36.279Z

>  <NumRotatableBonds>  (627) 
2

>  <is_N_methyl>  (627) 
False

>  <is_a_methyl>  (627) 
False

>  <is_alpha_aa>  (627) 
False

>  <is_beta_aa>  (627) 
False

>  <is_S100_aa>  (627) 
False

>  <Murcko_SMILES>  (627) 
C1CNCCNC1

$$$$

     RDKit          2D

 11 10  0  0  0  0  0  0  0  0999 V2000
    7.7942   -0.0000    0.0000 C   0  0  0  0  0  0  0  0  0  0  0  0
    6.4952    0.7500    0.0000 C   0  0  0  0  0  0  0  0  0  0  0  0
    6.4952    2.2500    0.0000 C   0  0  0  0  0  0  0  0  0  0  0  0
    5.1962   -0.0000    0.0000 C   0  0  0  0  0  0  0  0  0  0  0  0
    3.8971    0.7500    0.0000 C   0  0  0  0  0  0  0  0  0  0  0  0
    2.5981   -0.0000    0.0000 C   0  0  0  0  0  0  0  0  0  0  0  0
    1.2990    0.7500    0.0000 N   0  0  0  0  0  0  0  0  0  0  0  0
    0.0000    0.0000    0.0000 R   0  0  0  0  0  1  0  0  0  1  0  0
    2.5981   -1.5000    0.0000 C   0  0  0  0  0  0  0  0  0  0  0  0
    1.2990   -2.2500    0.0000 O   0  0  0  0  0  0  0  0  0  0  0  0
    3.8971   -2.2500    0.0000 R   0  0  0  0  0  1  0  0  0  2  0  0
  1  2  1  0
  2  3  1  0
  2  4  1  0
  4  5  1  0
  6  5  1  6
  6  7  1  0
  7  8  1  0
  6  9  1  0
  9 10  2  0
  9 11  1  0
M  END
>  <id>  (628) 
7a6d874b-b3e9-4137-8f2d-1d1752fec68f

>  <Version>  (628) 
0

>  <Alias>  (628) 
D-hLeu

>  <Type>  (628) 
amino_acid

>  <Smiles>  (628) 
CC(C)CC[C@@H](N[*:1])C(=O)[*:2]

>  <ProtectedSmiles>  (628) 
CC(C)CC[C@@H](NC(=O)OCC1c2ccccc2-c2ccccc21)C(=O)O

>  <CAS>  (628) 
204320-60-5

>  <User>  (628) 
sevan.h

>  <StereoComment>  (628) 
as drawn

>  <Name>  (628) 
Fmoc-D-homoleucine

>  <Code>  (628) 
D-hLeu

>  <AliasLowerCase>  (628) 
d-hleu

>  <LatestVersion>  (628) 
0.0

>  <createdAt>  (628) 
2026-01-14T12:16:02.009Z

>  <updatedAt>  (628) 
2026-01-14T12:16:02.009Z

>  <NumRotatableBonds>  (628) 
5

>  <is_N_methyl>  (628) 
False

>  <is_a_methyl>  (628) 
False

>  <is_alpha_aa>  (628) 
True

>  <is_beta_aa>  (628) 
False

>  <is_S100_aa>  (628) 
False

>  <Murcko_SMILES>  (628) 


$$$$

     RDKit          2D

 19 20  0  0  0  0  0  0  0  0999 V2000
    3.0000   -5.1962    0.0000 O   0  0  0  0  0  0  0  0  0  0  0  0
    3.7500   -3.8971    0.0000 C   0  0  0  0  0  0  0  0  0  0  0  0
    3.0000   -2.5981    0.0000 C   0  0  0  0  0  0  0  0  0  0  0  0
    3.7500   -1.2990    0.0000 N   0  0  0  0  0  0  0  0  0  0  0  0
    5.2500   -1.2990    0.0000 R   0  0  0  0  0  1  0  0  0  1  0  0
    1.5000   -2.5981    0.0000 C   0  0  0  0  0  0  0  0  0  0  0  0
    0.7500   -1.2990    0.0000 C   0  0  0  0  0  0  0  0  0  0  0  0
    1.5000    0.0000    0.0000 C   0  0  0  0  0  0  0  0  0  0  0  0
    0.7500    1.2990    0.0000 C   0  0  0  0  0  0  0  0  0  0  0  0
   -0.7500    1.2990    0.0000 C   0  0  0  0  0  0  0  0  0  0  0  0
   -1.5000    0.0000    0.0000 C   0  0  0  0  0  0  0  0  0  0  0  0
   -0.7500   -1.2990    0.0000 C   0  0  0  0  0  0  0  0  0  0  0  0
    0.7500   -3.8971    0.0000 C   0  0  0  0  0  0  0  0  0  0  0  0
   -0.7500   -3.8971    0.0000 C   0  0  0  0  0  0  0  0  0  0  0  0
   -1.5000   -5.1962    0.0000 C   0  0  0  0  0  0  0  0  0  0  0  0
   -0.7500   -6.4952    0.0000 C   0  0  0  0  0  0  0  0  0  0  0  0
    0.7500   -6.4952    0.0000 C   0  0  0  0  0  0  0  0  0  0  0  0
    1.5000   -5.1962    0.0000 C   0  0  0  0  0  0  0  0  0  0  0  0
    5.2500   -3.8971    0.0000 R   0  0  0  0  0  1  0  0  0  2  0  0
  1  2  2  0
  2  3  1  0
  3  4  1  1
  4  5  1  0
  3  6  1  0
  6  7  1  0
  7  8  2  0
  8  9  1  0
  9 10  2  0
 10 11  1  0
 11 12  2  0
  6 13  1  0
 13 14  2  0
 14 15  1  0
 15 16  2  0
 16 17  1  0
 17 18  2  0
  2 19  1  0
 12  7  1  0
 18 13  1  0
M  END
>  <id>  (629) 
c6f55a94-bc88-4be3-b753-787a035c8702

>  <Version>  (629) 
0

>  <Alias>  (629) 
D-Ala(Ph2)

>  <Type>  (629) 
amino_acid

>  <Smiles>  (629) 
O=C([C@H](N[*:1])C(c1ccccc1)c1ccccc1)[*:2]

>  <ProtectedSmiles>  (629) 
O=C(N[C@@H](C(=O)O)C(c1ccccc1)c1ccccc1)OCC1c2ccccc2-c2ccccc21

>  <CAS>  (629) 
189937-46-0

>  <User>  (629) 
sevan.h

>  <StereoComment>  (629) 
as drawn

>  <Name>  (629) 
Fmoc-D-3,3-diphenylalanine

>  <Code>  (629) 
D-Ala(Ph2)

>  <AliasLowerCase>  (629) 
d-ala(ph2)

>  <LatestVersion>  (629) 
0.0

>  <createdAt>  (629) 
2026-01-14T12:15:25.688Z

>  <updatedAt>  (629) 
2026-01-14T12:15:25.688Z

>  <NumRotatableBonds>  (629) 
5

>  <is_N_methyl>  (629) 
False

>  <is_a_methyl>  (629) 
False

>  <is_alpha_aa>  (629) 
True

>  <is_beta_aa>  (629) 
False

>  <is_S100_aa>  (629) 
False

>  <Murcko_SMILES>  (629) 
c1ccc(Cc2ccccc2)cc1

$$$$

     RDKit          2D

 14 14  0  0  0  0  0  0  0  0999 V2000
    5.2500   -3.8971    0.0000 O   0  0  0  0  0  0  0  0  0  0  0  0
    6.0000   -2.5981    0.0000 C   0  0  0  0  0  0  0  0  0  0  0  0
    5.2500   -1.2990    0.0000 C   0  0  0  0  0  0  0  0  0  0  0  0
    3.7500   -1.2990    0.0000 C   0  0  0  0  0  0  0  0  0  0  0  0
    3.0000    0.0000    0.0000 C   0  0  0  0  0  0  0  0  0  0  0  0
    1.5000    0.0000    0.0000 C   0  0  0  0  0  0  0  0  0  0  0  0
    0.7500   -1.2990    0.0000 C   0  0  0  0  0  0  0  0  0  0  0  0
   -0.7500   -1.2990    0.0000 C   0  0  0  0  0  0  0  0  0  0  0  0
   -1.5000    0.0000    0.0000 C   0  0  0  0  0  0  0  0  0  0  0  0
   -0.7500    1.2990    0.0000 C   0  0  0  0  0  0  0  0  0  0  0  0
    0.7500    1.2990    0.0000 C   0  0  0  0  0  0  0  0  0  0  0  0
    6.0000    0.0000    0.0000 N   0  0  0  0  0  0  0  0  0  0  0  0
    7.5000    0.0000    0.0000 R   0  0  0  0  0  1  0  0  0  1  0  0
    7.5000   -2.5981    0.0000 R   0  0  0  0  0  1  0  0  0  2  0  0
  1  2  2  0
  2  3  1  0
  3  4  1  1
  4  5  1  0
  5  6  1  0
  6  7  1  0
  7  8  1  0
  8  9  1  0
  9 10  1  0
 10 11  1  0
  3 12  1  0
 12 13  1  0
  2 14  1  0
 11  6  1  0
M  END
>  <id>  (630) 
baba60dd-116a-40d2-a101-a784fc94700e

>  <Version>  (630) 
0

>  <Alias>  (630) 
D-hCha

>  <Type>  (630) 
amino_acid

>  <Smiles>  (630) 
O=C([C@@H](CCC1CCCCC1)N[*:1])[*:2]

>  <ProtectedSmiles>  (630) 
O=C(N[C@H](CCC1CCCCC1)C(=O)O)OCC1c2ccccc2-c2ccccc21

>  <CAS>  (630) 
269078-72-0

>  <User>  (630) 
sevan.h

>  <StereoComment>  (630) 
as drawn

>  <Name>  (630) 
(R)-2-((((9H-Fluoren-9-yl)methoxy)carbonyl)amino)-4-cyclohexylbutanoic acid

>  <Code>  (630) 
D-hCha

>  <AliasLowerCase>  (630) 
d-hcha

>  <LatestVersion>  (630) 
0.0

>  <createdAt>  (630) 
2026-01-14T11:37:35.201Z

>  <updatedAt>  (630) 
2026-01-14T11:37:35.201Z

>  <NumRotatableBonds>  (630) 
5

>  <is_N_methyl>  (630) 
False

>  <is_a_methyl>  (630) 
False

>  <is_alpha_aa>  (630) 
True

>  <is_beta_aa>  (630) 
False

>  <is_S100_aa>  (630) 
False

>  <Murcko_SMILES>  (630) 
C1CCCCC1

$$$$

     RDKit          2D

 10 10  0  0  0  0  0  0  0  0999 V2000
    3.5260    1.2990    0.0000 O   0  0  0  0  0  0  0  0  0  0  0  0
    2.7760    0.0000    0.0000 C   0  0  0  0  0  0  0  0  0  0  0  0
    1.2760    0.0000    0.0000 C   0  0  0  0  0  0  0  0  0  0  0  0
    0.3943    1.2135    0.0000 C   0  0  0  0  0  0  0  0  0  0  0  0
   -1.0323    0.7500    0.0000 C   0  0  0  0  0  0  0  0  0  0  0  0
   -2.2458    1.6317    0.0000 O   0  0  0  0  0  0  0  0  0  0  0  0
   -1.0323   -0.7500    0.0000 C   0  0  0  0  0  0  0  0  0  0  0  0
    0.3943   -1.2135    0.0000 N   0  0  0  0  0  0  0  0  0  0  0  0
    0.8578   -2.6401    0.0000 R   0  0  0  0  0  1  0  0  0  1  0  0
    3.5260   -1.2990    0.0000 R   0  0  0  0  0  1  0  0  0  2  0  0
  1  2  2  0
  3  2  1  1
  3  4  1  0
  4  5  1  0
  5  6  1  1
  5  7  1  0
  7  8  1  0
  8  9  1  0
  2 10  1  0
  8  3  1  0
M  END
>  <id>  (631) 
3357d81c-5228-4c0d-a938-81ed9a566e99

>  <Version>  (631) 
0

>  <Alias>  (631) 
Hyp(4S)

>  <Type>  (631) 
amino_acid

>  <Smiles>  (631) 
O=C([C@@H]1C[C@H](O)CN1[*:1])[*:2]

>  <ProtectedSmiles>  (631) 
O=C(O)[C@@H]1C[C@H](O)CN1C(=O)OCC1c2ccccc2-c2ccccc21

>  <CAS>  (631) 
189249-10-3

>  <User>  (631) 
mischa.s

>  <StereoComment>  (631) 
as drawn

>  <Name>  (631) 
(2S,4S)-1-(((9H-Fluoren-9-yl)methoxy)carbonyl)-4-hydroxypyrrolidine-2-carboxylic acid

>  <Code>  (631) 
Hyp(4S)

>  <AliasLowerCase>  (631) 
hyp(4s)

>  <LatestVersion>  (631) 
0.0

>  <createdAt>  (631) 
2026-01-14T11:36:32.850Z

>  <updatedAt>  (631) 
2026-01-14T11:36:32.850Z

>  <NumRotatableBonds>  (631) 
1

>  <is_N_methyl>  (631) 
False

>  <is_a_methyl>  (631) 
False

>  <is_alpha_aa>  (631) 
True

>  <is_beta_aa>  (631) 
False

>  <is_S100_aa>  (631) 
False

>  <Murcko_SMILES>  (631) 
C1CCNC1

$$$$

     RDKit          2D

 17 17  0  0  0  0  0  0  0  0999 V2000
    6.0000    0.0000    0.0000 O   0  0  0  0  0  0  0  0  0  0  0  0
    5.2500   -1.2990    0.0000 C   0  0  0  0  0  0  0  0  0  0  0  0
    3.7500   -1.2990    0.0000 C   0  0  0  0  0  0  0  0  0  0  0  0
    3.0000    0.0000    0.0000 C   0  0  0  0  0  0  0  0  0  0  0  0
    1.5000    0.0000    0.0000 C   0  0  0  0  0  0  0  0  0  0  0  0
    0.7500   -1.2990    0.0000 C   0  0  0  0  0  0  0  0  0  0  0  0
   -0.7500   -1.2990    0.0000 C   0  0  0  0  0  0  0  0  0  0  0  0
   -1.5000    0.0000    0.0000 C   0  0  0  0  0  0  0  0  0  0  0  0
   -3.0000    0.0000    0.0000 C   0  0  0  0  0  0  0  0  0  0  0  0
   -4.5000    0.0000    0.0000 F   0  0  0  0  0  0  0  0  0  0  0  0
   -3.0000    1.5000    0.0000 F   0  0  0  0  0  0  0  0  0  0  0  0
   -3.0000   -1.5000    0.0000 F   0  0  0  0  0  0  0  0  0  0  0  0
   -0.7500    1.2990    0.0000 C   0  0  0  0  0  0  0  0  0  0  0  0
    0.7500    1.2990    0.0000 C   0  0  0  0  0  0  0  0  0  0  0  0
    3.0000   -2.5981    0.0000 N   0  0  0  0  0  0  0  0  0  0  0  0
    3.7500   -3.8971    0.0000 R   0  0  0  0  0  1  0  0  0  1  0  0
    6.0000   -2.5981    0.0000 R   0  0  0  0  0  1  0  0  0  2  0  0
  1  2  2  0
  2  3  1  0
  3  4  1  1
  4  5  1  0
  5  6  2  0
  6  7  1  0
  7  8  2  0
  8  9  1  0
  9 10  1  0
  9 11  1  0
  9 12  1  0
  8 13  1  0
 13 14  2  0
  3 15  1  0
 15 16  1  0
  2 17  1  0
 14  5  1  0
M  END
>  <id>  (632) 
17aee472-7fdd-4295-be86-8826fd5afa19

>  <Version>  (632) 
0

>  <Alias>  (632) 
4CF3Phe

>  <Type>  (632) 
amino_acid

>  <Smiles>  (632) 
O=C([C@H](Cc1ccc(C(F)(F)F)cc1)N[*:1])[*:2]

>  <ProtectedSmiles>  (632) 
O=C(N[C@@H](Cc1ccc(C(F)(F)F)cc1)C(=O)O)OCC1c2ccccc2-c2ccccc21

>  <CAS>  (632) 
247113-86-6

>  <User>  (632) 
angelica.l

>  <StereoComment>  (632) 
as drawn

>  <Name>  (632) 
(S)-2-((((9H-Fluoren-9-yl)methoxy)carbonyl)amino)-3-(4-(trifluoromethyl)phenyl)propanoic acid

>  <Code>  (632) 
4CF3Phe

>  <AliasLowerCase>  (632) 
4cf3phe

>  <LatestVersion>  (632) 
0.0

>  <createdAt>  (632) 
2026-01-14T11:34:04.288Z

>  <updatedAt>  (632) 
2026-01-14T11:34:04.288Z

>  <NumRotatableBonds>  (632) 
4

>  <is_N_methyl>  (632) 
False

>  <is_a_methyl>  (632) 
False

>  <is_alpha_aa>  (632) 
True

>  <is_beta_aa>  (632) 
False

>  <is_S100_aa>  (632) 
False

>  <Murcko_SMILES>  (632) 
c1ccccc1

$$$$

     RDKit          2D

 15 16  0  0  0  0  0  0  0  0999 V2000
   -3.3086   -3.4460    0.0000 O   0  0  0  0  0  0  0  0  0  0  0  0
   -2.1595   -4.4101    0.0000 C   0  0  0  0  0  0  0  0  0  0  0  0
   -0.7500   -3.8971    0.0000 C   0  0  0  0  0  0  0  0  0  0  0  0
   -0.4895   -5.3743    0.0000 N   0  0  0  0  0  0  0  0  0  0  0  0
    0.9200   -5.8874    0.0000 R   0  0  0  0  0  1  0  0  0  1  0  0
    0.7500   -3.8971    0.0000 C   0  0  0  0  0  0  0  0  0  0  0  0
    1.5000   -2.5981    0.0000 C   0  0  0  0  0  0  0  0  0  0  0  0
    0.7500   -1.2990    0.0000 C   0  0  0  0  0  0  0  0  0  0  0  0
    1.5000    0.0000    0.0000 C   0  0  0  0  0  0  0  0  0  0  0  0
    0.7500    1.2990    0.0000 C   0  0  0  0  0  0  0  0  0  0  0  0
   -0.7500    1.2990    0.0000 C   0  0  0  0  0  0  0  0  0  0  0  0
   -1.5000    0.0000    0.0000 C   0  0  0  0  0  0  0  0  0  0  0  0
   -0.7500   -1.2990    0.0000 C   0  0  0  0  0  0  0  0  0  0  0  0
   -1.5000   -2.5981    0.0000 C   0  0  0  0  0  0  0  0  0  0  0  0
   -2.4200   -5.8874    0.0000 R   0  0  0  0  0  1  0  0  0  2  0  0
  1  2  2  0
  2  3  1  0
  3  4  1  0
  4  5  1  0
  3  6  1  0
  6  7  1  0
  7  8  1  0
  8  9  2  0
  9 10  1  0
 10 11  2  0
 11 12  1  0
 12 13  2  0
 13 14  1  0
  2 15  1  0
 14  3  1  0
 13  8  1  0
M  END
>  <id>  (633) 
1127f471-3c70-471c-9953-3185a9b9aa92

>  <Version>  (633) 
0

>  <Alias>  (633) 
AminoTet

>  <Type>  (633) 
amino_acid

>  <Smiles>  (633) 
O=C(C1(N[*:1])CCc2ccccc2C1)[*:2]

>  <ProtectedSmiles>  (633) 
O=C(NC1(C(=O)O)CCc2ccccc2C1)OCC1c2ccccc2-c2ccccc21

>  <CAS>  (633) 
135944-08-0

>  <User>  (633) 
sevan.h

>  <StereoComment>  (633) 
as drawn

>  <Name>  (633) 
N-Fmoc-d,l-2-aminotetralin-2-carboxylic acid

>  <Code>  (633) 
AminoTet

>  <AliasLowerCase>  (633) 
aminotet

>  <LatestVersion>  (633) 
0.0

>  <createdAt>  (633) 
2026-01-14T12:15:03.342Z

>  <updatedAt>  (633) 
2026-01-14T12:15:03.342Z

>  <NumRotatableBonds>  (633) 
2

>  <is_N_methyl>  (633) 
False

>  <is_a_methyl>  (633) 
False

>  <is_alpha_aa>  (633) 
True

>  <is_beta_aa>  (633) 
False

>  <is_S100_aa>  (633) 
False

>  <Murcko_SMILES>  (633) 
c1ccc2c(c1)CCCC2

$$$$

     RDKit          2D

 11 10  0  0  0  0  0  0  0  0999 V2000
    7.7942   -0.0000    0.0000 C   0  0  0  0  0  0  0  0  0  0  0  0
    6.4952    0.7500    0.0000 C   0  0  0  0  0  0  0  0  0  0  0  0
    6.4952    2.2500    0.0000 O   0  0  0  0  0  0  0  0  0  0  0  0
    5.1962   -0.0000    0.0000 N   0  0  0  0  0  0  0  0  0  0  0  0
    3.8971    0.7500    0.0000 C   0  0  0  0  0  0  0  0  0  0  0  0
    2.5981   -0.0000    0.0000 C   0  0  0  0  0  0  0  0  0  0  0  0
    1.2990    0.7500    0.0000 N   0  0  0  0  0  0  0  0  0  0  0  0
    0.0000    0.0000    0.0000 R   0  0  0  0  0  1  0  0  0  1  0  0
    2.5981   -1.5000    0.0000 C   0  0  0  0  0  0  0  0  0  0  0  0
    1.2990   -2.2500    0.0000 O   0  0  0  0  0  0  0  0  0  0  0  0
    3.8971   -2.2500    0.0000 R   0  0  0  0  0  1  0  0  0  2  0  0
  1  2  1  0
  2  3  2  0
  2  4  1  0
  4  5  1  0
  6  5  1  1
  6  7  1  0
  7  8  1  0
  6  9  1  0
  9 10  2  0
  9 11  1  0
M  END
>  <id>  (634) 
94c94b31-f4b3-4e10-b332-37aa72b31bb1

>  <Version>  (634) 
0

>  <Alias>  (634) 
N-Ac-Dap

>  <Type>  (634) 
amino_acid

>  <Smiles>  (634) 
CC(=O)NC[C@H](N[*:1])C(=O)[*:2]

>  <ProtectedSmiles>  (634) 
CC(=O)NC[C@H](NC(=O)OCC1c2ccccc2-c2ccccc21)C(=O)O

>  <CAS>  (634) 
181952-29-4

>  <User>  (634) 
clement.gensous@orbismedicines.com

>  <StereoComment>  (634) 
as drawn

>  <Name>  (634) 
N-Ac-Dap

>  <Code>  (634) 
N-Ac-Dap

>  <AliasLowerCase>  (634) 
n-ac-dap

>  <LatestVersion>  (634) 
0.0

>  <createdAt>  (634) 
2026-01-15T09:28:41.922Z

>  <updatedAt>  (634) 
2026-01-15T09:28:41.922Z

>  <NumRotatableBonds>  (634) 
4

>  <is_N_methyl>  (634) 
False

>  <is_a_methyl>  (634) 
False

>  <is_alpha_aa>  (634) 
True

>  <is_beta_aa>  (634) 
False

>  <is_S100_aa>  (634) 
False

>  <Murcko_SMILES>  (634) 


$$$$

     RDKit          2D

 14 14  0  0  0  0  0  0  0  0999 V2000
    6.0000    0.0000    0.0000 O   0  0  0  0  0  0  0  0  0  0  0  0
    5.2500   -1.2990    0.0000 C   0  0  0  0  0  0  0  0  0  0  0  0
    3.7500   -1.2990    0.0000 C   0  0  0  0  0  0  0  0  0  0  0  0
    3.0000    0.0000    0.0000 C   0  0  0  0  0  0  0  0  0  0  0  0
    1.5000    0.0000    0.0000 C   0  0  0  0  0  0  0  0  0  0  0  0
    0.7500   -1.2990    0.0000 C   0  0  0  0  0  0  0  0  0  0  0  0
   -0.7500   -1.2990    0.0000 C   0  0  0  0  0  0  0  0  0  0  0  0
   -1.5000    0.0000    0.0000 C   0  0  0  0  0  0  0  0  0  0  0  0
   -0.7500    1.2990    0.0000 C   0  0  0  0  0  0  0  0  0  0  0  0
    0.7500    1.2990    0.0000 C   0  0  0  0  0  0  0  0  0  0  0  0
    1.5000    2.5981    0.0000 F   0  0  0  0  0  0  0  0  0  0  0  0
    3.0000   -2.5981    0.0000 N   0  0  0  0  0  0  0  0  0  0  0  0
    3.7500   -3.8971    0.0000 R   0  0  0  0  0  1  0  0  0  1  0  0
    6.0000   -2.5981    0.0000 R   0  0  0  0  0  1  0  0  0  2  0  0
  1  2  2  0
  2  3  1  0
  3  4  1  6
  4  5  1  0
  5  6  2  0
  6  7  1  0
  7  8  2  0
  8  9  1  0
  9 10  2  0
 10 11  1  0
  3 12  1  0
 12 13  1  0
  2 14  1  0
 10  5  1  0
M  END
>  <id>  (635) 
18fd537e-26a5-49aa-b8a6-d5e800426ec1

>  <Version>  (635) 
0

>  <Alias>  (635) 
D-2FPhe

>  <Type>  (635) 
amino_acid

>  <Smiles>  (635) 
O=C([C@@H](Cc1ccccc1F)N[*:1])[*:2]

>  <ProtectedSmiles>  (635) 
O=C(N[C@H](Cc1ccccc1F)C(=O)O)OCC1c2ccccc2-c2ccccc21

>  <CAS>  (635) 
198545-46-9

>  <User>  (635) 
sevan.h

>  <StereoComment>  (635) 
as drawn

>  <Name>  (635) 
Fmoc-D-2-fluorophenylalanine

>  <Code>  (635) 
D-2FPhe

>  <AliasLowerCase>  (635) 
d-2fphe

>  <LatestVersion>  (635) 
0.0

>  <createdAt>  (635) 
2026-01-14T11:36:38.898Z

>  <updatedAt>  (635) 
2026-01-14T11:36:38.898Z

>  <NumRotatableBonds>  (635) 
4

>  <is_N_methyl>  (635) 
False

>  <is_a_methyl>  (635) 
False

>  <is_alpha_aa>  (635) 
True

>  <is_beta_aa>  (635) 
False

>  <is_S100_aa>  (635) 
False

>  <Murcko_SMILES>  (635) 
c1ccccc1

$$$$

     RDKit          2D

 10  9  0  0  0  0  0  0  0  0999 V2000
    6.4952    0.7500    0.0000 C   0  0  0  0  0  0  0  0  0  0  0  0
    5.1962   -0.0000    0.0000 C   0  0  0  0  0  0  0  0  0  0  0  0
    5.1962   -1.5000    0.0000 C   0  0  0  0  0  0  0  0  0  0  0  0
    3.8971    0.7500    0.0000 C   0  0  0  0  0  0  0  0  0  0  0  0
    2.5981   -0.0000    0.0000 C   0  0  0  0  0  0  0  0  0  0  0  0
    1.2990    0.7500    0.0000 N   0  0  0  0  0  0  0  0  0  0  0  0
    0.0000    0.0000    0.0000 R   0  0  0  0  0  1  0  0  0  1  0  0
    2.5981   -1.5000    0.0000 C   0  0  0  0  0  0  0  0  0  0  0  0
    1.2990   -2.2500    0.0000 O   0  0  0  0  0  0  0  0  0  0  0  0
    3.8971   -2.2500    0.0000 R   0  0  0  0  0  1  0  0  0  2  0  0
  1  2  1  0
  2  3  1  0
  2  4  1  0
  5  4  1  6
  5  6  1  0
  6  7  1  0
  5  8  1  0
  8  9  2  0
  8 10  1  0
M  END
>  <id>  (636) 
312191d1-2c27-49c2-a48c-a340ddf26c43

>  <Version>  (636) 
0

>  <Alias>  (636) 
D-Leu

>  <Type>  (636) 
amino_acid

>  <Smiles>  (636) 
CC(C)C[C@@H](N[*:1])C(=O)[*:2]

>  <ProtectedSmiles>  (636) 
CC(C)C[C@@H](NC(=O)OCC1c2ccccc2-c2ccccc21)C(=O)O

>  <CAS>  (636) 
114360-54-2

>  <User>  (636) 
sevan.h

>  <StereoComment>  (636) 
as drawn

>  <Name>  (636) 
Fmoc-D-Leu-OH

>  <Code>  (636) 
D-Leu

>  <AliasLowerCase>  (636) 
d-leu

>  <LatestVersion>  (636) 
0.0

>  <createdAt>  (636) 
2026-01-14T12:17:13.345Z

>  <updatedAt>  (636) 
2026-01-14T12:17:13.345Z

>  <NumRotatableBonds>  (636) 
4

>  <is_N_methyl>  (636) 
False

>  <is_a_methyl>  (636) 
False

>  <is_alpha_aa>  (636) 
True

>  <is_beta_aa>  (636) 
False

>  <is_S100_aa>  (636) 
False

>  <Murcko_SMILES>  (636) 


$$$$

     RDKit          2D

 10 10  0  0  0  0  0  0  0  0999 V2000
    5.3660    0.0000    0.0000 O   0  0  0  0  0  0  0  0  0  0  0  0
    4.6160   -1.2990    0.0000 C   0  0  0  0  0  0  0  0  0  0  0  0
    3.1160   -1.2990    0.0000 C   0  0  0  0  0  0  0  0  0  0  0  0
    2.3660    0.0000    0.0000 C   0  0  0  0  0  0  0  0  0  0  0  0
    0.8660    0.0000    0.0000 C   0  0  0  0  0  0  0  0  0  0  0  0
   -0.4330    0.7500    0.0000 C   0  0  0  0  0  0  0  0  0  0  0  0
   -0.4330   -0.7500    0.0000 C   0  0  0  0  0  0  0  0  0  0  0  0
    2.3660   -2.5981    0.0000 N   0  0  0  0  0  0  0  0  0  0  0  0
    3.1160   -3.8971    0.0000 R   0  0  0  0  0  1  0  0  0  1  0  0
    5.3660   -2.5981    0.0000 R   0  0  0  0  0  1  0  0  0  2  0  0
  1  2  2  0
  2  3  1  0
  3  4  1  1
  4  5  1  0
  5  6  1  0
  6  7  1  0
  3  8  1  0
  8  9  1  0
  2 10  1  0
  7  5  1  0
M  END
>  <id>  (637) 
22aa8058-30f2-44df-8dea-49536673b94f

>  <Version>  (637) 
0

>  <Alias>  (637) 
cPropAla

>  <Type>  (637) 
amino_acid

>  <Smiles>  (637) 
O=C([C@H](CC1CC1)N[*:1])[*:2]

>  <ProtectedSmiles>  (637) 
O=C(N[C@@H](CC1CC1)C(=O)O)OCC1c2ccccc2-c2ccccc21

>  <CAS>  (637) 
214750-76-2

>  <User>  (637) 
sevan.h

>  <StereoComment>  (637) 
as drawn

>  <Name>  (637) 
Fmoc-L-Cyclopropylalanine

>  <Code>  (637) 
cPropAla

>  <AliasLowerCase>  (637) 
cpropala

>  <LatestVersion>  (637) 
0.0

>  <createdAt>  (637) 
2026-01-14T12:16:40.846Z

>  <updatedAt>  (637) 
2026-01-14T12:16:40.846Z

>  <NumRotatableBonds>  (637) 
4

>  <is_N_methyl>  (637) 
False

>  <is_a_methyl>  (637) 
False

>  <is_alpha_aa>  (637) 
True

>  <is_beta_aa>  (637) 
False

>  <is_S100_aa>  (637) 
False

>  <Murcko_SMILES>  (637) 
C1CC1

$$$$

     RDKit          2D

  9  8  0  0  0  0  0  0  0  0999 V2000
    6.4952    0.7500    0.0000 C   0  0  0  0  0  0  0  0  0  0  0  0
    5.1962   -0.0000    0.0000 O   0  0  0  0  0  0  0  0  0  0  0  0
    3.8971    0.7500    0.0000 C   0  0  0  0  0  0  0  0  0  0  0  0
    2.5981   -0.0000    0.0000 C   0  0  0  0  0  0  0  0  0  0  0  0
    1.2990    0.7500    0.0000 N   0  0  0  0  0  0  0  0  0  0  0  0
    0.0000    0.0000    0.0000 R   0  0  0  0  0  1  0  0  0  1  0  0
    2.5981   -1.5000    0.0000 C   0  0  0  0  0  0  0  0  0  0  0  0
    1.2990   -2.2500    0.0000 O   0  0  0  0  0  0  0  0  0  0  0  0
    3.8971   -2.2500    0.0000 R   0  0  0  0  0  1  0  0  0  2  0  0
  1  2  1  0
  2  3  1  0
  3  4  1  0
  4  5  1  0
  5  6  1  0
  4  7  1  0
  7  8  2  0
  7  9  1  0
M  END
>  <id>  (638) 
e867686f-0c2e-4335-a19f-e2a64ff3ca85

>  <Version>  (638) 
0

>  <Alias>  (638) 
racSer(OMe)

>  <Type>  (638) 
amino_acid

>  <Smiles>  (638) 
COCC(N[*:1])C(=O)[*:2]

>  <ProtectedSmiles>  (638) 
COCC(NC(=O)OCC1c2ccccc2-c2ccccc21)C(=O)O

>  <CAS>  (638) 
215189-51-8

>  <User>  (638) 
mischa.s

>  <StereoComment>  (638) 
as drawn

>  <Name>  (638) 
racemic N-[(9H-Fluoren-9-ylmethoxy)carbonyl]-O-methylserine

>  <Code>  (638) 
racSer(OMe)

>  <AliasLowerCase>  (638) 
racser(ome)

>  <LatestVersion>  (638) 
0.0

>  <createdAt>  (638) 
2026-01-14T11:34:21.668Z

>  <updatedAt>  (638) 
2026-01-14T11:34:21.668Z

>  <NumRotatableBonds>  (638) 
4

>  <is_N_methyl>  (638) 
False

>  <is_a_methyl>  (638) 
False

>  <is_alpha_aa>  (638) 
True

>  <is_beta_aa>  (638) 
False

>  <is_S100_aa>  (638) 
False

>  <Murcko_SMILES>  (638) 


$$$$

     RDKit          2D

 12 13  0  0  0  0  0  0  0  0999 V2000
   -2.7707   -1.1807    0.0000 O   0  0  0  0  0  0  0  0  0  0  0  0
   -2.4589    0.2865    0.0000 C   0  0  0  0  0  0  0  0  0  0  0  0
   -1.0323    0.7500    0.0000 C   0  0  0  0  0  0  0  0  0  0  0  0
   -1.9140    1.9635    0.0000 C   0  0  0  0  0  0  0  0  0  0  0  0
   -1.0323    3.1771    0.0000 N   0  0  0  0  0  0  0  0  0  0  0  0
   -1.4958    4.6036    0.0000 R   0  0  0  0  0  1  0  0  0  1  0  0
    0.3943    2.7135    0.0000 C   0  0  0  0  0  0  0  0  0  0  0  0
    0.3943    1.2135    0.0000 C   0  0  0  0  0  0  0  0  0  0  0  0
    1.2760    0.0000    0.0000 C   0  0  0  0  0  0  0  0  0  0  0  0
    0.3943   -1.2135    0.0000 C   0  0  0  0  0  0  0  0  0  0  0  0
   -1.0323   -0.7500    0.0000 O   0  0  0  0  0  0  0  0  0  0  0  0
   -3.5736    1.2902    0.0000 R   0  0  0  0  0  1  0  0  0  2  0  0
  1  2  2  0
  3  2  1  6
  3  4  1  0
  4  5  1  0
  5  6  1  0
  5  7  1  0
  8  7  1  1
  8  9  1  0
  9 10  1  0
 10 11  1  0
  2 12  1  0
  8  3  1  0
 11  3  1  0
M  END
>  <id>  (639) 
27daab6d-652f-4fda-b2ab-2d401f65a6b8

>  <Version>  (639) 
0

>  <Alias>  (639) 
(3aR,6aR)OctFuPyrCA

>  <Type>  (639) 
amino_acid

>  <Smiles>  (639) 
O=C([C@]12CN([*:1])C[C@H]1CCO2)[*:2]

>  <ProtectedSmiles>  (639) 
O=C(OCC1c2ccccc2-c2ccccc21)N1C[C@H]2CCO[C@@]2(C(=O)O)C1

>  <CAS>  (639) 
2137851-84-2

>  <User>  (639) 
Sevan.habeshian@orbismedicines.com

>  <StereoComment>  (639) 
rac-cis

>  <Name>  (639) 
N/A

>  <Code>  (639) 
(3aR,6aR)OctFuPyrCA

>  <AliasLowerCase>  (639) 
(3ar,6ar)octfupyrca

>  <LatestVersion>  (639) 
0.0

>  <createdAt>  (639) 
2026-02-13T09:56:36.297Z

>  <updatedAt>  (639) 
2026-02-13T09:56:36.297Z

>  <NumRotatableBonds>  (639) 
1

>  <is_N_methyl>  (639) 
False

>  <is_a_methyl>  (639) 
False

>  <is_alpha_aa>  (639) 
False

>  <is_beta_aa>  (639) 
True

>  <is_S100_aa>  (639) 
False

>  <Murcko_SMILES>  (639) 
C1C[C@@H]2CNCC2O1

$$$$

     RDKit          2D

 14 14  0  0  0  0  0  0  0  0999 V2000
    3.0000    0.0000    0.0000 C   0  0  0  0  0  0  0  0  0  0  0  0
    1.5000    0.0000    0.0000 C   0  0  0  0  0  0  0  0  0  0  0  0
    0.7500   -1.2990    0.0000 C   0  0  0  0  0  0  0  0  0  0  0  0
   -0.7500   -1.2990    0.0000 C   0  0  0  0  0  0  0  0  0  0  0  0
   -1.5000    0.0000    0.0000 C   0  0  0  0  0  0  0  0  0  0  0  0
   -0.7500    1.2990    0.0000 C   0  0  0  0  0  0  0  0  0  0  0  0
    0.7500    1.2990    0.0000 C   0  0  0  0  0  0  0  0  0  0  0  0
    1.5000    2.5981    0.0000 C   0  0  0  0  0  0  0  0  0  0  0  0
    0.7500    3.8971    0.0000 C   0  0  0  0  0  0  0  0  0  0  0  0
   -0.7500    3.8971    0.0000 N   0  0  0  0  0  0  0  0  0  0  0  0
   -1.5000    5.1962    0.0000 R   0  0  0  0  0  1  0  0  0  1  0  0
    1.5000    5.1962    0.0000 C   0  0  0  0  0  0  0  0  0  0  0  0
    3.0000    5.1962    0.0000 O   0  0  0  0  0  0  0  0  0  0  0  0
    0.7500    6.4952    0.0000 R   0  0  0  0  0  1  0  0  0  2  0  0
  1  2  1  0
  2  3  2  0
  3  4  1  0
  4  5  2  0
  5  6  1  0
  6  7  2  0
  7  8  1  0
  9  8  1  1
  9 10  1  0
 10 11  1  0
  9 12  1  0
 12 13  2  0
 12 14  1  0
  7  2  1  0
M  END
>  <id>  (640) 
a3688faf-6785-4d4b-b227-fe54a13e9e56

>  <Version>  (640) 
0

>  <Alias>  (640) 
D-2MePhe

>  <Type>  (640) 
amino_acid

>  <Smiles>  (640) 
Cc1ccccc1C[C@@H](N[*:1])C(=O)[*:2]

>  <ProtectedSmiles>  (640) 
Cc1ccccc1C[C@@H](NC(=O)OCC1c2ccccc2-c2ccccc21)C(=O)O

>  <CAS>  (640) 
352351-63-4

>  <User>  (640) 
sevan.h

>  <StereoComment>  (640) 
as drawn

>  <Name>  (640) 
Fmoc-D-2-methylphenylalanine

>  <Code>  (640) 
D-2MePhe

>  <AliasLowerCase>  (640) 
d-2mephe

>  <LatestVersion>  (640) 
0.0

>  <createdAt>  (640) 
2026-01-14T12:16:18.529Z

>  <updatedAt>  (640) 
2026-01-14T12:16:18.529Z

>  <NumRotatableBonds>  (640) 
4

>  <is_N_methyl>  (640) 
False

>  <is_a_methyl>  (640) 
False

>  <is_alpha_aa>  (640) 
True

>  <is_beta_aa>  (640) 
False

>  <is_S100_aa>  (640) 
False

>  <Murcko_SMILES>  (640) 
c1ccccc1

$$$$

     RDKit          2D

 10 10  0  0  0  0  0  0  0  0999 V2000
    2.7760   -2.5981    0.0000 O   0  0  0  0  0  0  0  0  0  0  0  0
    3.5260   -1.2990    0.0000 C   0  0  0  0  0  0  0  0  0  0  0  0
    2.7760    0.0000    0.0000 C   0  0  0  0  0  0  0  0  0  0  0  0
    1.2760    0.0000    0.0000 C   0  0  0  0  0  0  0  0  0  0  0  0
    0.3943    1.2135    0.0000 C   0  0  0  0  0  0  0  0  0  0  0  0
   -1.0323    0.7500    0.0000 C   0  0  0  0  0  0  0  0  0  0  0  0
   -1.0323   -0.7500    0.0000 C   0  0  0  0  0  0  0  0  0  0  0  0
    0.3943   -1.2135    0.0000 N   0  0  0  0  0  0  0  0  0  0  0  0
    0.8578   -2.6401    0.0000 R   0  0  0  0  0  1  0  0  0  1  0  0
    5.0260   -1.2990    0.0000 R   0  0  0  0  0  1  0  0  0  2  0  0
  1  2  2  0
  2  3  1  0
  4  3  1  1
  4  5  1  0
  5  6  1  0
  6  7  1  0
  7  8  1  0
  8  9  1  0
  2 10  1  0
  8  4  1  0
M  END
>  <id>  (641) 
b3d9f45d-ddbc-4215-b8f1-0154e97b5582

>  <Version>  (641) 
0

>  <Alias>  (641) 
L-B-hPro

>  <Type>  (641) 
amino_acid

>  <Smiles>  (641) 
O=C(C[C@@H]1CCCN1[*:1])[*:2]

>  <ProtectedSmiles>  (641) 
O=C(O)C[C@@H]1CCCN1C(=O)OCC1c2ccccc2-c2ccccc21

>  <CAS>  (641) 
193693-60-6

>  <User>  (641) 
sevan.h

>  <StereoComment>  (641) 
as drawn

>  <Name>  (641) 
Fmoc-L-beta-homoproline

>  <Code>  (641) 
L-B-hPro

>  <AliasLowerCase>  (641) 
l-b-hpro

>  <LatestVersion>  (641) 
0.0

>  <createdAt>  (641) 
2026-01-14T12:16:42.981Z

>  <updatedAt>  (641) 
2026-01-14T12:16:42.981Z

>  <NumRotatableBonds>  (641) 
2

>  <is_N_methyl>  (641) 
False

>  <is_a_methyl>  (641) 
False

>  <is_alpha_aa>  (641) 
False

>  <is_beta_aa>  (641) 
True

>  <is_S100_aa>  (641) 
False

>  <Murcko_SMILES>  (641) 
C1CCNC1

$$$$

     RDKit          2D

 11 11  0  0  0  0  0  0  0  0999 V2000
    3.0000   -2.5981    0.0000 O   0  0  0  0  0  0  0  0  0  0  0  0
    3.7500   -1.2990    0.0000 C   0  0  0  0  0  0  0  0  0  0  0  0
    3.0000    0.0000    0.0000 C   0  0  0  0  0  0  0  0  0  0  0  0
    1.5000    0.0000    0.0000 N   0  0  0  0  0  0  0  0  0  0  0  0
    0.7500   -1.2990    0.0000 C   0  0  0  0  0  0  0  0  0  0  0  0
   -0.7500   -1.2990    0.0000 C   0  0  0  0  0  0  0  0  0  0  0  0
   -1.5000    0.0000    0.0000 N   0  0  0  0  0  0  0  0  0  0  0  0
   -3.0000    0.0000    0.0000 R   0  0  0  0  0  1  0  0  0  1  0  0
   -0.7500    1.2990    0.0000 C   0  0  0  0  0  0  0  0  0  0  0  0
    0.7500    1.2990    0.0000 C   0  0  0  0  0  0  0  0  0  0  0  0
    5.2500   -1.2990    0.0000 R   0  0  0  0  0  1  0  0  0  2  0  0
  1  2  2  0
  2  3  1  0
  3  4  1  0
  4  5  1  0
  5  6  1  0
  6  7  1  0
  7  8  1  0
  7  9  1  0
  9 10  1  0
  2 11  1  0
 10  4  1  0
M  END
>  <id>  (642) 
dae05299-f0b3-4c6b-ac8d-1dc58b8b4fd8

>  <Version>  (642) 
0

>  <Alias>  (642) 
N-Pip-Ac

>  <Type>  (642) 
amino_acid

>  <Smiles>  (642) 
O=C(CN1CCN([*:1])CC1)[*:2]

>  <ProtectedSmiles>  (642) 
O=C(O)CN1CCN(C(=O)OCC2c3ccccc3-c3ccccc32)CC1

>  <CAS>  (642) 
180576-05-0

>  <User>  (642) 
Sevan.habeshian@orbismedicines.com

>  <StereoComment>  (642) 
as drawn

>  <Name>  (642) 
N/A

>  <Code>  (642) 
N-Pip-Ac

>  <AliasLowerCase>  (642) 
n-pip-ac

>  <LatestVersion>  (642) 
0.0

>  <createdAt>  (642) 
2026-02-13T09:56:35.484Z

>  <updatedAt>  (642) 
2026-02-13T09:56:35.484Z

>  <NumRotatableBonds>  (642) 
2

>  <is_N_methyl>  (642) 
False

>  <is_a_methyl>  (642) 
False

>  <is_alpha_aa>  (642) 
False

>  <is_beta_aa>  (642) 
False

>  <is_S100_aa>  (642) 
False

>  <Murcko_SMILES>  (642) 
C1CNCCN1

$$$$

     RDKit          2D

  9  9  0  0  0  0  0  0  0  0999 V2000
    3.5260    1.2990    0.0000 O   0  0  0  0  0  0  0  0  0  0  0  0
    2.7760    0.0000    0.0000 C   0  0  0  0  0  0  0  0  0  0  0  0
    1.2760    0.0000    0.0000 C   0  0  0  0  0  0  0  0  0  0  0  0
    0.3943    1.2135    0.0000 C   0  0  0  0  0  0  0  0  0  0  0  0
   -1.0323    0.7500    0.0000 C   0  0  0  0  0  0  0  0  0  0  0  0
   -1.0323   -0.7500    0.0000 N   0  0  0  0  0  0  0  0  0  0  0  0
   -2.2458   -1.6317    0.0000 R   0  0  0  0  0  1  0  0  0  1  0  0
    0.3943   -1.2135    0.0000 C   0  0  0  0  0  0  0  0  0  0  0  0
    3.5260   -1.2990    0.0000 R   0  0  0  0  0  1  0  0  0  2  0  0
  1  2  2  0
  3  2  1  1
  3  4  1  0
  4  5  1  0
  5  6  1  0
  6  7  1  0
  6  8  1  0
  2  9  1  0
  8  3  1  0
M  END
>  <id>  (643) 
b5cc3a79-f579-4d01-ab58-ea6bd160a408

>  <Version>  (643) 
0

>  <Alias>  (643) 
D-1Pyr

>  <Type>  (643) 
amino_acid

>  <Smiles>  (643) 
O=C([C@@H]1CCN([*:1])C1)[*:2]

>  <ProtectedSmiles>  (643) 
O=C(O)[C@@H]1CCN(C(=O)OCC2c3ccccc3-c3ccccc32)C1

>  <CAS>  (643) 
193693-65-1

>  <User>  (643) 
mischa.s

>  <StereoComment>  (643) 
as drawn

>  <Name>  (643) 
(R)-1-(((9H-Fluoren-9-yl)methoxy)carbonyl)pyrrolidine-3-carboxylic acid

>  <Code>  (643) 
D-1Pyr

>  <AliasLowerCase>  (643) 
d-1pyr

>  <LatestVersion>  (643) 
0.0

>  <createdAt>  (643) 
2026-01-14T11:36:25.641Z

>  <updatedAt>  (643) 
2026-01-14T11:36:25.641Z

>  <NumRotatableBonds>  (643) 
1

>  <is_N_methyl>  (643) 
False

>  <is_a_methyl>  (643) 
False

>  <is_alpha_aa>  (643) 
False

>  <is_beta_aa>  (643) 
True

>  <is_S100_aa>  (643) 
False

>  <Murcko_SMILES>  (643) 
C1CCNC1

$$$$

     RDKit          2D

 12 12  0  0  0  0  0  0  0  0999 V2000
    4.3191   -1.0261    0.0000 O   0  0  0  0  0  0  0  0  0  0  0  0
    4.0586    0.4512    0.0000 C   0  0  0  0  0  0  0  0  0  0  0  0
    2.6491    0.9642    0.0000 C   0  0  0  0  0  0  0  0  0  0  0  0
    1.5000    0.0000    0.0000 C   0  0  0  0  0  0  0  0  0  0  0  0
    2.6491   -0.9642    0.0000 N   0  0  0  0  0  0  0  0  0  0  0  0
    2.3886   -2.4414    0.0000 R   0  0  0  0  0  1  0  0  0  1  0  0
    0.7500   -1.2990    0.0000 C   0  0  0  0  0  0  0  0  0  0  0  0
   -0.7500   -1.2990    0.0000 C   0  0  0  0  0  0  0  0  0  0  0  0
   -1.5000    0.0000    0.0000 O   0  0  0  0  0  0  0  0  0  0  0  0
   -0.7500    1.2990    0.0000 C   0  0  0  0  0  0  0  0  0  0  0  0
    0.7500    1.2990    0.0000 C   0  0  0  0  0  0  0  0  0  0  0  0
    5.2077    1.4153    0.0000 R   0  0  0  0  0  1  0  0  0  2  0  0
  1  2  2  0
  2  3  1  0
  3  4  1  0
  4  5  1  0
  5  6  1  0
  4  7  1  0
  7  8  1  0
  8  9  1  0
  9 10  1  0
 10 11  1  0
  2 12  1  0
 11  4  1  0
M  END
>  <id>  (644) 
9bc8a4d6-398a-4fdd-8947-ed5b786b7e18

>  <Version>  (644) 
0

>  <Alias>  (644) 
4Am4AcOxane

>  <Type>  (644) 
amino_acid

>  <Smiles>  (644) 
O=C(CC1(N[*:1])CCOCC1)[*:2]

>  <ProtectedSmiles>  (644) 
O=C(O)CC1(NC(=O)OCC2c3ccccc3-c3ccccc32)CCOCC1

>  <CAS>  (644) 
946716-25-2

>  <User>  (644) 
Sevan.habeshian@orbismedicines.com

>  <StereoComment>  (644) 
as drawn

>  <Name>  (644) 
N/A

>  <Code>  (644) 
4Am4AcOxane

>  <AliasLowerCase>  (644) 
4am4acoxane

>  <LatestVersion>  (644) 
0.0

>  <createdAt>  (644) 
2026-02-13T09:56:35.499Z

>  <updatedAt>  (644) 
2026-02-13T09:56:35.499Z

>  <NumRotatableBonds>  (644) 
3

>  <is_N_methyl>  (644) 
False

>  <is_a_methyl>  (644) 
False

>  <is_alpha_aa>  (644) 
False

>  <is_beta_aa>  (644) 
True

>  <is_S100_aa>  (644) 
False

>  <Murcko_SMILES>  (644) 
C1CCOCC1

$$$$

     RDKit          2D

 13 13  0  0  0  0  0  0  0  0999 V2000
    5.2500   -3.8971    0.0000 O   0  0  0  0  0  0  0  0  0  0  0  0
    6.0000   -2.5981    0.0000 C   0  0  0  0  0  0  0  0  0  0  0  0
    5.2500   -1.2990    0.0000 C   0  0  0  0  0  0  0  0  0  0  0  0
    3.7500   -1.2990    0.0000 C   0  0  0  0  0  0  0  0  0  0  0  0
    3.0000    0.0000    0.0000 C   0  0  0  0  0  0  0  0  0  0  0  0
    1.5000    0.0000    0.0000 C   0  0  0  0  0  0  0  0  0  0  0  0
    0.7500   -1.2990    0.0000 C   0  0  0  0  0  0  0  0  0  0  0  0
   -0.7500   -1.2990    0.0000 C   0  0  0  0  0  0  0  0  0  0  0  0
   -1.5000    0.0000    0.0000 C   0  0  0  0  0  0  0  0  0  0  0  0
   -0.7500    1.2990    0.0000 N   0  0  0  0  0  0  0  0  0  0  0  0
   -1.5000    2.5981    0.0000 R   0  0  0  0  0  1  0  0  0  1  0  0
    0.7500    1.2990    0.0000 C   0  0  0  0  0  0  0  0  0  0  0  0
    7.5000   -2.5981    0.0000 R   0  0  0  0  0  1  0  0  0  2  0  0
  1  2  2  0
  2  3  1  0
  3  4  1  0
  4  5  1  0
  5  6  1  0
  6  7  1  0
  7  8  1  0
  8  9  1  0
  9 10  1  0
 10 11  1  0
 10 12  1  0
  2 13  1  0
 12  6  1  0
M  END
>  <id>  (645) 
467b2b57-485f-4559-8921-8266d07d30f7

>  <Version>  (645) 
0

>  <Alias>  (645) 
3CButylPip

>  <Type>  (645) 
amino_acid

>  <Smiles>  (645) 
O=C(CCCC1CCCN([*:1])C1)[*:2]

>  <ProtectedSmiles>  (645) 
O=C(O)CCCC1CCCN(C(=O)OCC2c3ccccc3-c3ccccc32)C1

>  <CAS>  (645) 
886366-26-3

>  <User>  (645) 
angelica.l

>  <StereoComment>  (645) 
as drawn

>  <Name>  (645) 
4-(1-FMOC-PIPERIDIN-3-YL)-BUTYRIC ACID

>  <Code>  (645) 
3CButylPip

>  <AliasLowerCase>  (645) 
3cbutylpip

>  <LatestVersion>  (645) 
0.0

>  <createdAt>  (645) 
2026-01-14T11:34:30.994Z

>  <updatedAt>  (645) 
2026-01-14T11:34:30.994Z

>  <NumRotatableBonds>  (645) 
4

>  <is_N_methyl>  (645) 
False

>  <is_a_methyl>  (645) 
False

>  <is_alpha_aa>  (645) 
False

>  <is_beta_aa>  (645) 
False

>  <is_S100_aa>  (645) 
False

>  <Murcko_SMILES>  (645) 
C1CCNCC1

$$$$

     RDKit          2D

  9  8  0  0  0  0  0  0  0  0999 V2000
    3.1471    2.0490    0.0000 C   0  0  0  0  0  0  0  0  0  0  0  0
    3.8971    0.7500    0.0000 C   0  0  0  0  0  0  0  0  0  0  0  0
    4.6471   -0.5490    0.0000 C   0  0  0  0  0  0  0  0  0  0  0  0
    2.5981   -0.0000    0.0000 C   0  0  0  0  0  0  0  0  0  0  0  0
    1.2990    0.7500    0.0000 N   0  0  0  0  0  0  0  0  0  0  0  0
    0.0000    0.0000    0.0000 R   0  0  0  0  0  1  0  0  0  1  0  0
    5.1962    1.5000    0.0000 C   0  0  0  0  0  0  0  0  0  0  0  0
    6.4952    0.7500    0.0000 O   0  0  0  0  0  0  0  0  0  0  0  0
    5.1962    3.0000    0.0000 R   0  0  0  0  0  1  0  0  0  2  0  0
  1  2  1  0
  2  3  1  0
  2  4  1  0
  4  5  1  0
  5  6  1  0
  2  7  1  0
  7  8  2  0
  7  9  1  0
M  END
>  <id>  (646) 
28cffceb-0c56-4552-b290-9c7dc26f2067

>  <Version>  (646) 
0

>  <Alias>  (646) 
2,2-diMe-B-Ala

>  <Type>  (646) 
amino_acid

>  <Smiles>  (646) 
CC(C)(CN[*:1])C(=O)[*:2]

>  <ProtectedSmiles>  (646) 
CC(C)(CNC(=O)OCC1c2ccccc2-c2ccccc21)C(=O)O

>  <CAS>  (646) 
1076197-00-6

>  <User>  (646) 
Sevan.habeshian@orbismedicines.com

>  <StereoComment>  (646) 
as drawn

>  <Name>  (646) 
N/A

>  <Code>  (646) 
2,2-diMe-B-Ala

>  <AliasLowerCase>  (646) 
2,2-dime-b-ala

>  <LatestVersion>  (646) 
0.0

>  <createdAt>  (646) 
2026-02-13T09:56:35.399Z

>  <updatedAt>  (646) 
2026-02-13T09:56:35.399Z

>  <NumRotatableBonds>  (646) 
3

>  <is_N_methyl>  (646) 
False

>  <is_a_methyl>  (646) 
False

>  <is_alpha_aa>  (646) 
False

>  <is_beta_aa>  (646) 
True

>  <is_S100_aa>  (646) 
False

>  <Murcko_SMILES>  (646) 


$$$$

     RDKit          2D

 12 11  0  0  0  0  0  0  0  0999 V2000
    9.0933    0.7500    0.0000 N   0  0  0  0  0  0  0  0  0  0  0  0
    7.7942   -0.0000    0.0000 C   0  0  0  0  0  0  0  0  0  0  0  0
    7.7942   -1.5000    0.0000 O   0  0  0  0  0  0  0  0  0  0  0  0
    6.4952    0.7500    0.0000 C   0  0  0  0  0  0  0  0  0  0  0  0
    5.1962   -0.0000    0.0000 C   0  0  0  0  0  0  0  0  0  0  0  0
    3.8971    0.7500    0.0000 C   0  0  0  0  0  0  0  0  0  0  0  0
    2.5981   -0.0000    0.0000 C   0  0  0  0  0  0  0  0  0  0  0  0
    1.2990    0.7500    0.0000 C   0  0  0  0  0  0  0  0  0  0  0  0
    1.2990    2.2500    0.0000 O   0  0  0  0  0  0  0  0  0  0  0  0
    0.0000    0.0000    0.0000 R   0  0  0  0  0  1  0  0  0  2  0  0
    6.4952    2.2500    0.0000 N   0  0  0  0  0  0  0  0  0  0  0  0
    7.7942    3.0000    0.0000 R   0  0  0  0  0  1  0  0  0  1  0  0
  1  2  1  0
  2  3  2  0
  2  4  1  0
  4  5  1  6
  5  6  1  0
  6  7  1  0
  7  8  1  0
  8  9  2  0
  8 10  1  0
  4 11  1  0
 11 12  1  0
M  END
>  <id>  (647) 
952caeff-de88-4aeb-964b-68f73769ad1a

>  <Version>  (647) 
0

>  <Alias>  (647) 
hGln-NH2

>  <Type>  (647) 
amino_acid

>  <Smiles>  (647) 
NC(=O)[C@H](CCCC(=O)[*:2])N[*:1]

>  <ProtectedSmiles>  (647) 
NC(=O)[C@H](CCCC(=O)O)NC(=O)OCC1c2ccccc2-c2ccccc21

>  <CAS>  (647) 
1903597-94-3

>  <User>  (647) 
sevan.h

>  <StereoComment>  (647) 
as drawn

>  <Name>  (647) 
(5S)-6-amino-5-(Fmoc amino)-6-oxo-hexanoic acid

>  <Code>  (647) 
hGln-NH2

>  <AliasLowerCase>  (647) 
hgln-nh2

>  <LatestVersion>  (647) 
0.0

>  <createdAt>  (647) 
2026-01-14T11:37:58.610Z

>  <updatedAt>  (647) 
2026-01-14T11:37:58.610Z

>  <NumRotatableBonds>  (647) 
6

>  <is_N_methyl>  (647) 
False

>  <is_a_methyl>  (647) 
False

>  <is_alpha_aa>  (647) 
False

>  <is_beta_aa>  (647) 
False

>  <is_S100_aa>  (647) 
False

>  <Murcko_SMILES>  (647) 


$$$$

     RDKit          2D

 10 10  0  0  0  0  0  0  0  0999 V2000
    3.5260    1.2990    0.0000 O   0  0  0  0  0  0  0  0  0  0  0  0
    2.7760    0.0000    0.0000 C   0  0  0  0  0  0  0  0  0  0  0  0
    1.2760    0.0000    0.0000 C   0  0  0  0  0  0  0  0  0  0  0  0
    0.3943    1.2135    0.0000 C   0  0  0  0  0  0  0  0  0  0  0  0
   -1.0323    0.7500    0.0000 C   0  0  0  0  0  0  0  0  0  0  0  0
   -1.0323   -0.7500    0.0000 C   0  0  0  0  0  0  0  0  0  0  0  0
    0.3943   -1.2135    0.0000 C   0  0  0  0  0  0  0  0  0  0  0  0
    0.8578   -2.6401    0.0000 N   0  0  0  0  0  0  0  0  0  0  0  0
   -0.1459   -3.7548    0.0000 R   0  0  0  0  0  1  0  0  0  1  0  0
    3.5260   -1.2990    0.0000 R   0  0  0  0  0  1  0  0  0  2  0  0
  1  2  2  0
  3  2  1  1
  3  4  1  0
  4  5  1  0
  5  6  1  0
  6  7  1  0
  7  8  1  1
  8  9  1  0
  2 10  1  0
  7  3  1  0
M  END
>  <id>  (648) 
27d1366e-f968-4294-9fe2-c5cc608d7820

>  <Version>  (648) 
0

>  <Alias>  (648) 
c1,2ACP

>  <Type>  (648) 
amino_acid

>  <Smiles>  (648) 
O=C([C@@H]1CCC[C@@H]1N[*:1])[*:2]

>  <ProtectedSmiles>  (648) 
O=C(N[C@H]1CCC[C@H]1C(=O)O)OCC1c2ccccc2-c2ccccc21

>  <CAS>  (648) 
352707-76-7

>  <User>  (648) 
sevan.h

>  <StereoComment>  (648) 
as drawn

>  <Name>  (648) 
Cis-Fmoc-2-Amino-1-cyclopentanecarboxylic acid

>  <Code>  (648) 
c1,2ACP

>  <AliasLowerCase>  (648) 
c1,2acp

>  <LatestVersion>  (648) 
0.0

>  <createdAt>  (648) 
2026-01-14T12:16:24.617Z

>  <updatedAt>  (648) 
2026-01-14T12:16:24.617Z

>  <NumRotatableBonds>  (648) 
2

>  <is_N_methyl>  (648) 
False

>  <is_a_methyl>  (648) 
False

>  <is_alpha_aa>  (648) 
False

>  <is_beta_aa>  (648) 
True

>  <is_S100_aa>  (648) 
False

>  <Murcko_SMILES>  (648) 
C1CCCC1

$$$$

     RDKit          2D

 14 15  0  0  0  0  0  0  0  0999 V2000
    3.1700   -0.6078    0.0000 O   0  0  0  0  0  0  0  0  0  0  0  0
    2.9095   -2.0850    0.0000 C   0  0  0  0  0  0  0  0  0  0  0  0
    1.5000   -2.5981    0.0000 C   0  0  0  0  0  0  0  0  0  0  0  0
    0.7500   -1.2990    0.0000 C   0  0  0  0  0  0  0  0  0  0  0  0
    1.5000    0.0000    0.0000 C   0  0  0  0  0  0  0  0  0  0  0  0
    0.7500    1.2990    0.0000 C   0  0  0  0  0  0  0  0  0  0  0  0
   -0.7500    1.2990    0.0000 C   0  0  0  0  0  0  0  0  0  0  0  0
   -1.5000    2.5981    0.0000 N   0  0  0  0  0  0  0  0  0  0  0  0
   -0.7500    3.8971    0.0000 R   0  0  0  0  0  1  0  0  0  1  0  0
   -1.5000    0.0000    0.0000 C   0  0  0  0  0  0  0  0  0  0  0  0
   -0.7500   -1.2990    0.0000 C   0  0  0  0  0  0  0  0  0  0  0  0
    1.7605   -4.0753    0.0000 C   0  0  0  0  0  0  0  0  0  0  0  0
    0.3509   -3.5623    0.0000 C   0  0  0  0  0  0  0  0  0  0  0  0
    4.0586   -3.0492    0.0000 R   0  0  0  0  0  1  0  0  0  2  0  0
  1  2  2  0
  2  3  1  0
  3  4  1  0
  4  5  2  0
  5  6  1  0
  6  7  2  0
  7  8  1  0
  8  9  1  0
  7 10  1  0
 10 11  2  0
  3 12  1  0
 12 13  1  0
  2 14  1  0
 13  3  1  0
 11  4  1  0
M  END
>  <id>  (649) 
32c0a1e2-816d-41a0-9540-6eace64ee524

>  <Version>  (649) 
0

>  <Alias>  (649) 
cpropAPA

>  <Type>  (649) 
amino_acid

>  <Smiles>  (649) 
O=C(C1(c2ccc(N[*:1])cc2)CC1)[*:2]

>  <ProtectedSmiles>  (649) 
O=C(Nc1ccc(C2(C(=O)O)CC2)cc1)OCC1c2ccccc2-c2ccccc21

>  <CAS>  (649) 
1566216-08-7

>  <User>  (649) 
sevan.h

>  <StereoComment>  (649) 
as drawn

>  <Name>  (649) 
1-[4-Fmoc amino)phenyl]cyclopropane-1-carboxylic acid

>  <Code>  (649) 
cpropAPA

>  <AliasLowerCase>  (649) 
cpropapa

>  <LatestVersion>  (649) 
0.0

>  <createdAt>  (649) 
2026-01-14T12:15:21.605Z

>  <updatedAt>  (649) 
2026-01-14T12:15:21.605Z

>  <NumRotatableBonds>  (649) 
3

>  <is_N_methyl>  (649) 
False

>  <is_a_methyl>  (649) 
False

>  <is_alpha_aa>  (649) 
False

>  <is_beta_aa>  (649) 
False

>  <is_S100_aa>  (649) 
False

>  <Murcko_SMILES>  (649) 
c1ccc(C2CC2)cc1

$$$$

     RDKit          2D

  8  7  0  0  0  0  0  0  0  0999 V2000
    6.4952    2.2500    0.0000 O   0  0  0  0  0  0  0  0  0  0  0  0
    6.4952    0.7500    0.0000 C   0  0  0  0  0  0  0  0  0  0  0  0
    5.1962   -0.0000    0.0000 C   0  0  0  0  0  0  0  0  0  0  0  0
    3.8971    0.7500    0.0000 C   0  0  0  0  0  0  0  0  0  0  0  0
    2.5981   -0.0000    0.0000 C   0  0  0  0  0  0  0  0  0  0  0  0
    1.2990    0.7500    0.0000 N   0  0  0  0  0  0  0  0  0  0  0  0
    0.0000    0.0000    0.0000 R   0  0  0  0  0  1  0  0  0  1  0  0
    7.7942   -0.0000    0.0000 R   0  0  0  0  0  1  0  0  0  2  0  0
  1  2  2  0
  2  3  1  0
  3  4  1  0
  4  5  1  0
  5  6  1  0
  6  7  1  0
  2  8  1  0
M  END
>  <id>  (650) 
b3c03e9f-c310-4ae6-ac9a-43fc3e8482e1

>  <Version>  (650) 
0

>  <Alias>  (650) 
GABA

>  <Type>  (650) 
amino_acid

>  <Smiles>  (650) 
O=C(CCCN[*:1])[*:2]

>  <ProtectedSmiles>  (650) 
O=C(O)CCCNC(=O)OCC1c2ccccc2-c2ccccc21

>  <CAS>  (650) 
116821-47-7

>  <User>  (650) 
sevan.h

>  <StereoComment>  (650) 
as drawn

>  <Name>  (650) 
 Fmoc-gamma-Abu-OH

>  <Code>  (650) 
GABA

>  <AliasLowerCase>  (650) 
gaba

>  <LatestVersion>  (650) 
0.0

>  <createdAt>  (650) 
2026-01-14T11:38:21.786Z

>  <updatedAt>  (650) 
2026-01-14T11:38:21.786Z

>  <NumRotatableBonds>  (650) 
4

>  <is_N_methyl>  (650) 
False

>  <is_a_methyl>  (650) 
False

>  <is_alpha_aa>  (650) 
False

>  <is_beta_aa>  (650) 
False

>  <is_S100_aa>  (650) 
False

>  <Murcko_SMILES>  (650) 


$$$$

     RDKit          2D

 15 15  0  0  0  0  0  0  0  0999 V2000
    5.2500   -3.8971    0.0000 O   0  0  0  0  0  0  0  0  0  0  0  0
    6.0000   -2.5981    0.0000 C   0  0  0  0  0  0  0  0  0  0  0  0
    5.2500   -1.2990    0.0000 C   0  0  0  0  0  0  0  0  0  0  0  0
    3.7500   -1.2990    0.0000 C   0  0  0  0  0  0  0  0  0  0  0  0
    3.0000    0.0000    0.0000 C   0  0  0  0  0  0  0  0  0  0  0  0
    1.5000    0.0000    0.0000 C   0  0  0  0  0  0  0  0  0  0  0  0
    0.7500   -1.2990    0.0000 C   0  0  0  0  0  0  0  0  0  0  0  0
   -0.7500   -1.2990    0.0000 C   0  0  0  0  0  0  0  0  0  0  0  0
   -1.5000    0.0000    0.0000 C   0  0  0  0  0  0  0  0  0  0  0  0
   -3.0000    0.0000    0.0000 F   0  0  0  0  0  0  0  0  0  0  0  0
   -0.7500    1.2990    0.0000 C   0  0  0  0  0  0  0  0  0  0  0  0
    0.7500    1.2990    0.0000 C   0  0  0  0  0  0  0  0  0  0  0  0
    3.0000   -2.5981    0.0000 N   0  0  0  0  0  0  0  0  0  0  0  0
    3.7500   -3.8971    0.0000 R   0  0  0  0  0  1  0  0  0  1  0  0
    7.5000   -2.5981    0.0000 R   0  0  0  0  0  1  0  0  0  2  0  0
  1  2  2  0
  2  3  1  0
  4  3  1  6
  4  5  1  0
  5  6  1  0
  6  7  2  0
  7  8  1  0
  8  9  2  0
  9 10  1  0
  9 11  1  0
 11 12  2  0
  4 13  1  0
 13 14  1  0
  2 15  1  0
 12  6  1  0
M  END
>  <id>  (651) 
7760000e-9cca-4e77-a883-1e5a74c6ba9e

>  <Version>  (651) 
0

>  <Alias>  (651) 
D-B-h(4FPhe)

>  <Type>  (651) 
amino_acid

>  <Smiles>  (651) 
O=C(C[C@@H](Cc1ccc(F)cc1)N[*:1])[*:2]

>  <ProtectedSmiles>  (651) 
O=C(O)C[C@@H](Cc1ccc(F)cc1)NC(=O)OCC1c2ccccc2-c2ccccc21

>  <CAS>  (651) 
331763-70-3

>  <User>  (651) 
angelica.l

>  <StereoComment>  (651) 
as drawn

>  <Name>  (651) 
Fmoc-(R)-3-amino-4-(4-fluorophenyl)-butyric acid

>  <Code>  (651) 
D-B-h(4FPhe)

>  <AliasLowerCase>  (651) 
d-b-h(4fphe)

>  <LatestVersion>  (651) 
0.0

>  <createdAt>  (651) 
2026-01-14T11:36:48.354Z

>  <updatedAt>  (651) 
2026-01-14T11:36:48.354Z

>  <NumRotatableBonds>  (651) 
5

>  <is_N_methyl>  (651) 
False

>  <is_a_methyl>  (651) 
False

>  <is_alpha_aa>  (651) 
False

>  <is_beta_aa>  (651) 
True

>  <is_S100_aa>  (651) 
False

>  <Murcko_SMILES>  (651) 
c1ccccc1

$$$$

     RDKit          2D

 12 12  0  0  0  0  0  0  0  0999 V2000
    5.7760    0.0000    0.0000 O   0  0  0  0  0  0  0  0  0  0  0  0
    5.0260   -1.2990    0.0000 C   0  0  0  0  0  0  0  0  0  0  0  0
    3.5260   -1.2990    0.0000 C   0  0  0  0  0  0  0  0  0  0  0  0
    2.7760    0.0000    0.0000 C   0  0  0  0  0  0  0  0  0  0  0  0
    1.2760    0.0000    0.0000 N   0  0  0  0  0  0  0  0  0  0  0  0
    0.3943    1.2135    0.0000 C   0  0  0  0  0  0  0  0  0  0  0  0
   -1.0323    0.7500    0.0000 C   0  0  0  0  0  0  0  0  0  0  0  0
   -1.0323   -0.7500    0.0000 C   0  0  0  0  0  0  0  0  0  0  0  0
    0.3943   -1.2135    0.0000 N   0  0  0  0  0  0  0  0  0  0  0  0
    2.7760   -2.5981    0.0000 N   0  0  0  0  0  0  0  0  0  0  0  0
    3.5260   -3.8971    0.0000 R   0  0  0  0  0  1  0  0  0  1  0  0
    5.7760   -2.5981    0.0000 R   0  0  0  0  0  1  0  0  0  2  0  0
  1  2  2  0
  2  3  1  0
  3  4  1  0
  4  5  1  0
  5  6  1  0
  6  7  2  0
  7  8  1  0
  8  9  2  0
  3 10  1  0
 10 11  1  0
  2 12  1  0
  9  5  1  0
M  END
>  <id>  (652) 
1b6c676e-262e-413a-bc5b-a3feba0c59e0

>  <Version>  (652) 
0

>  <Alias>  (652) 
rac-3PyrzPA

>  <Type>  (652) 
amino_acid

>  <Smiles>  (652) 
O=C(C(Cn1cccn1)N[*:1])[*:2]

>  <ProtectedSmiles>  (652) 
O=C(NC(Cn1cccn1)C(=O)O)OCC1c2ccccc2-c2ccccc21

>  <CAS>  (652) 
224173-50-6

>  <User>  (652) 
mischa.s

>  <StereoComment>  (652) 
as drawn

>  <Name>  (652) 
rac-2-({[(9H-fluoren-9-yl)methoxy]carbonyl}amino)-3-(1H-pyrazol-1-yl)propanoic acid

>  <Code>  (652) 
rac-3PyrzPA

>  <AliasLowerCase>  (652) 
rac-3pyrzpa

>  <LatestVersion>  (652) 
0.0

>  <createdAt>  (652) 
2026-01-14T11:32:57.401Z

>  <updatedAt>  (652) 
2026-01-14T11:32:57.401Z

>  <NumRotatableBonds>  (652) 
4

>  <is_N_methyl>  (652) 
False

>  <is_a_methyl>  (652) 
False

>  <is_alpha_aa>  (652) 
True

>  <is_beta_aa>  (652) 
False

>  <is_S100_aa>  (652) 
False

>  <Murcko_SMILES>  (652) 
c1cn[nH]c1

$$$$

     RDKit          2D

 14 14  0  0  0  0  0  0  0  0999 V2000
    6.0000    0.0000    0.0000 O   0  0  0  0  0  0  0  0  0  0  0  0
    5.2500   -1.2990    0.0000 C   0  0  0  0  0  0  0  0  0  0  0  0
    3.7500   -1.2990    0.0000 C   0  0  0  0  0  0  0  0  0  0  0  0
    3.0000    0.0000    0.0000 C   0  0  0  0  0  0  0  0  0  0  0  0
    1.5000    0.0000    0.0000 C   0  0  0  0  0  0  0  0  0  0  0  0
    0.7500   -1.2990    0.0000 C   0  0  0  0  0  0  0  0  0  0  0  0
   -0.7500   -1.2990    0.0000 C   0  0  0  0  0  0  0  0  0  0  0  0
   -1.5000    0.0000    0.0000 C   0  0  0  0  0  0  0  0  0  0  0  0
   -0.7500    1.2990    0.0000 C   0  0  0  0  0  0  0  0  0  0  0  0
    0.7500    1.2990    0.0000 C   0  0  0  0  0  0  0  0  0  0  0  0
    1.5000    2.5981    0.0000 Cl  0  0  0  0  0  0  0  0  0  0  0  0
    3.0000   -2.5981    0.0000 N   0  0  0  0  0  0  0  0  0  0  0  0
    3.7500   -3.8971    0.0000 R   0  0  0  0  0  1  0  0  0  1  0  0
    6.0000   -2.5981    0.0000 R   0  0  0  0  0  1  0  0  0  2  0  0
  1  2  2  0
  2  3  1  0
  3  4  1  0
  4  5  1  0
  5  6  2  0
  6  7  1  0
  7  8  2  0
  8  9  1  0
  9 10  2  0
 10 11  1  0
  3 12  1  0
 12 13  1  0
  2 14  1  0
 10  5  1  0
M  END
>  <id>  (653) 
565247f6-b617-4b68-9f44-5182e65732eb

>  <Version>  (653) 
0

>  <Alias>  (653) 
rac2ClPhe

>  <Type>  (653) 
amino_acid

>  <Smiles>  (653) 
O=C(C(Cc1ccccc1Cl)N[*:1])[*:2]

>  <ProtectedSmiles>  (653) 
O=C(NC(Cc1ccccc1Cl)C(=O)O)OCC1c2ccccc2-c2ccccc21

>  <CAS>  (653) 
678991-52-1

>  <User>  (653) 
mischa.s

>  <StereoComment>  (653) 
as drawn

>  <Name>  (653) 
racemic 2-Chloro-N-[(9H-fluoren-9-ylmethoxy)carbonyl]phenylalanine

>  <Code>  (653) 
rac2ClPhe

>  <AliasLowerCase>  (653) 
rac2clphe

>  <LatestVersion>  (653) 
0.0

>  <createdAt>  (653) 
2026-01-14T11:34:21.001Z

>  <updatedAt>  (653) 
2026-01-14T11:34:21.001Z

>  <NumRotatableBonds>  (653) 
4

>  <is_N_methyl>  (653) 
False

>  <is_a_methyl>  (653) 
False

>  <is_alpha_aa>  (653) 
True

>  <is_beta_aa>  (653) 
False

>  <is_S100_aa>  (653) 
False

>  <Murcko_SMILES>  (653) 
c1ccccc1

$$$$

     RDKit          2D

 11 11  0  0  0  0  0  0  0  0999 V2000
    5.5607    0.0000    0.0000 O   0  0  0  0  0  0  0  0  0  0  0  0
    4.8107   -1.2990    0.0000 C   0  0  0  0  0  0  0  0  0  0  0  0
    3.3107   -1.2990    0.0000 C   0  0  0  0  0  0  0  0  0  0  0  0
    2.5607    0.0000    0.0000 C   0  0  0  0  0  0  0  0  0  0  0  0
    1.0607    0.0000    0.0000 C   0  0  0  0  0  0  0  0  0  0  0  0
   -0.0000   -1.0607    0.0000 C   0  0  0  0  0  0  0  0  0  0  0  0
   -1.0607    0.0000    0.0000 C   0  0  0  0  0  0  0  0  0  0  0  0
    0.0000    1.0607    0.0000 C   0  0  0  0  0  0  0  0  0  0  0  0
    2.5607   -2.5981    0.0000 N   0  0  0  0  0  0  0  0  0  0  0  0
    3.3107   -3.8971    0.0000 R   0  0  0  0  0  1  0  0  0  1  0  0
    5.5607   -2.5981    0.0000 R   0  0  0  0  0  1  0  0  0  2  0  0
  1  2  2  0
  2  3  1  0
  3  4  1  6
  4  5  1  0
  5  6  1  0
  6  7  1  0
  7  8  1  0
  3  9  1  0
  9 10  1  0
  2 11  1  0
  8  5  1  0
M  END
>  <id>  (654) 
ad061f2d-313b-485b-a5d8-412788ab0623

>  <Version>  (654) 
0

>  <Alias>  (654) 
D-Cbp

>  <Type>  (654) 
amino_acid

>  <Smiles>  (654) 
O=C([C@@H](CC1CCC1)N[*:1])[*:2]

>  <ProtectedSmiles>  (654) 
O=C(N[C@H](CC1CCC1)C(=O)O)OCC1c2ccccc2-c2ccccc21

>  <CAS>  (654) 
478183-63-0

>  <User>  (654) 
mischa.s

>  <StereoComment>  (654) 
as drawn

>  <Name>  (654) 
(Î±R)-Î±-[[(9H-Fluoren-9-ylmethoxy)carbonyl]amino]cyclobutanepropanoic acid

>  <Code>  (654) 
D-Cbp

>  <AliasLowerCase>  (654) 
d-cbp

>  <LatestVersion>  (654) 
0.0

>  <createdAt>  (654) 
2026-01-14T11:37:29.686Z

>  <updatedAt>  (654) 
2026-01-14T11:37:29.686Z

>  <NumRotatableBonds>  (654) 
4

>  <is_N_methyl>  (654) 
False

>  <is_a_methyl>  (654) 
False

>  <is_alpha_aa>  (654) 
True

>  <is_beta_aa>  (654) 
False

>  <is_S100_aa>  (654) 
False

>  <Murcko_SMILES>  (654) 
C1CCC1

$$$$

     RDKit          2D

 12 11  0  0  0  0  0  0  0  0999 V2000
    7.7942   -1.5000    0.0000 O   0  0  0  0  0  0  0  0  0  0  0  0
    7.7942   -0.0000    0.0000 C   0  0  0  0  0  0  0  0  0  0  0  0
    9.0933    0.7500    0.0000 O   0  0  0  0  0  0  0  0  0  0  0  0
    6.4952    0.7500    0.0000 C   0  0  0  0  0  0  0  0  0  0  0  0
    5.1962   -0.0000    0.0000 C   0  0  0  0  0  0  0  0  0  0  0  0
    3.8971    0.7500    0.0000 C   0  0  0  0  0  0  0  0  0  0  0  0
    2.5981   -0.0000    0.0000 C   0  0  0  0  0  0  0  0  0  0  0  0
    1.2990    0.7500    0.0000 N   0  0  0  0  0  0  0  0  0  0  0  0
    0.0000    0.0000    0.0000 R   0  0  0  0  0  1  0  0  0  1  0  0
    2.5981   -1.5000    0.0000 C   0  0  0  0  0  0  0  0  0  0  0  0
    1.2990   -2.2500    0.0000 O   0  0  0  0  0  0  0  0  0  0  0  0
    3.8971   -2.2500    0.0000 R   0  0  0  0  0  1  0  0  0  2  0  0
  1  2  2  0
  2  3  1  0
  2  4  1  0
  4  5  1  0
  5  6  1  0
  7  6  1  1
  7  8  1  0
  8  9  1  0
  7 10  1  0
 10 11  2  0
 10 12  1  0
M  END
>  <id>  (655) 
cd81d8e7-9376-4baf-a387-37d9d79c19d6

>  <Version>  (655) 
0

>  <Alias>  (655) 
hGlu(OAll)

>  <Type>  (655) 
amino_acid

>  <Smiles>  (655) 
O=C(O)CCC[C@H](N[*:1])C(=O)[*:2]

>  <ProtectedSmiles>  (655) 
C=CCOC(=O)CCC[C@H](NC(=O)OCC1c2ccccc2-c2ccccc21)C(=O)O

>  <CAS>  (655) 
133464-45-6

>  <User>  (655) 
emile.b

>  <StereoComment>  (655) 
as drawn

>  <Name>  (655) 
Fmoc-HomoGlu(OAll)-OH

>  <Code>  (655) 
hGlu(OAll)

>  <AliasLowerCase>  (655) 
hglu(oall)

>  <LatestVersion>  (655) 
0.0

>  <createdAt>  (655) 
2026-01-14T11:34:46.292Z

>  <updatedAt>  (655) 
2026-01-14T11:34:46.292Z

>  <NumRotatableBonds>  (655) 
6

>  <is_N_methyl>  (655) 
False

>  <is_a_methyl>  (655) 
False

>  <is_alpha_aa>  (655) 
True

>  <is_beta_aa>  (655) 
False

>  <is_S100_aa>  (655) 
False

>  <Murcko_SMILES>  (655) 


$$$$

     RDKit          2D

  9  9  0  0  0  0  0  0  0  0999 V2000
    3.3107    1.2990    0.0000 O   0  0  0  0  0  0  0  0  0  0  0  0
    2.5607    0.0000    0.0000 C   0  0  0  0  0  0  0  0  0  0  0  0
    1.0607    0.0000    0.0000 C   0  0  0  0  0  0  0  0  0  0  0  0
   -0.0000   -1.0607    0.0000 C   0  0  0  0  0  0  0  0  0  0  0  0
   -1.0607    0.0000    0.0000 C   0  0  0  0  0  0  0  0  0  0  0  0
   -2.5607    0.0000    0.0000 N   0  0  0  0  0  0  0  0  0  0  0  0
   -3.3107    1.2990    0.0000 R   0  0  0  0  0  1  0  0  0  1  0  0
    0.0000    1.0607    0.0000 C   0  0  0  0  0  0  0  0  0  0  0  0
    3.3107   -1.2990    0.0000 R   0  0  0  0  0  1  0  0  0  2  0  0
  1  2  2  0
  2  3  1  0
  3  4  1  0
  4  5  1  0
  5  6  1  0
  6  7  1  0
  5  8  1  0
  2  9  1  0
  8  3  1  0
M  END
>  <id>  (656) 
32497c8e-0344-4461-a5c9-5944d68481ca

>  <Version>  (656) 
0

>  <Alias>  (656) 
3AmcBut

>  <Type>  (656) 
amino_acid

>  <Smiles>  (656) 
O=C(C1CC(N[*:1])C1)[*:2]

>  <ProtectedSmiles>  (656) 
O=C(NC1CC(C(=O)O)C1)OCC1c2ccccc2-c2ccccc21

>  <CAS>  (656) 
1935557-50-8

>  <User>  (656) 
Sevan.habeshian@orbismedicines.com

>  <StereoComment>  (656) 
as drawn

>  <Name>  (656) 
N/A

>  <Code>  (656) 
3AmcBut

>  <AliasLowerCase>  (656) 
3amcbut

>  <LatestVersion>  (656) 
0.0

>  <createdAt>  (656) 
2026-02-13T09:56:35.476Z

>  <updatedAt>  (656) 
2026-02-13T09:56:35.476Z

>  <NumRotatableBonds>  (656) 
2

>  <is_N_methyl>  (656) 
False

>  <is_a_methyl>  (656) 
False

>  <is_alpha_aa>  (656) 
False

>  <is_beta_aa>  (656) 
False

>  <is_S100_aa>  (656) 
False

>  <Murcko_SMILES>  (656) 
C1CCC1

$$$$

     RDKit          2D

 11 10  0  0  0  0  0  0  0  0999 V2000
    6.4952   -3.7500    0.0000 C   0  0  0  0  0  0  0  0  0  0  0  0
    6.4952   -2.2500    0.0000 C   0  0  0  0  0  0  0  0  0  0  0  0
    7.7942   -1.5000    0.0000 C   0  0  0  0  0  0  0  0  0  0  0  0
    5.1962   -1.5000    0.0000 C   0  0  0  0  0  0  0  0  0  0  0  0
    5.1962   -0.0000    0.0000 N   0  0  0  0  0  0  0  0  0  0  0  0
    3.8971    0.7500    0.0000 C   0  0  0  0  0  0  0  0  0  0  0  0
    2.5981   -0.0000    0.0000 C   0  0  0  0  0  0  0  0  0  0  0  0
    1.2990    0.7500    0.0000 C   0  0  0  0  0  0  0  0  0  0  0  0
    1.2990    2.2500    0.0000 O   0  0  0  0  0  0  0  0  0  0  0  0
    0.0000    0.0000    0.0000 R   0  0  0  0  0  1  0  0  0  2  0  0
    6.4952    0.7500    0.0000 R   0  0  0  0  0  1  0  0  0  1  0  0
  1  2  1  0
  2  3  1  0
  2  4  1  0
  4  5  1  0
  5  6  1  0
  6  7  1  0
  7  8  1  0
  8  9  2  0
  8 10  1  0
  5 11  1  0
M  END
>  <id>  (657) 
bfb0adcc-51da-4182-a6e4-8318a7dd16d0

>  <Version>  (657) 
0

>  <Alias>  (657) 
N-iBu-BAla

>  <Type>  (657) 
amino_acid

>  <Smiles>  (657) 
CC(C)CN(CCC(=O)[*:2])[*:1]

>  <ProtectedSmiles>  (657) 
CC(C)CN(CCC(=O)O)C(=O)OCC1c2ccccc2-c2ccccc21

>  <CAS>  (657) 
1393817-23-6

>  <User>  (657) 
angelica.l

>  <StereoComment>  (657) 
as drawn

>  <Name>  (657) 
3-({[(9H-fluoren-9-yl)methoxy]carbonyl}(2-methylpropyl)amino)propanoic acid

>  <Code>  (657) 
N-iBu-BAla

>  <AliasLowerCase>  (657) 
n-ibu-bala

>  <LatestVersion>  (657) 
0.0

>  <createdAt>  (657) 
2026-01-14T11:34:48.290Z

>  <updatedAt>  (657) 
2026-01-14T11:34:48.290Z

>  <NumRotatableBonds>  (657) 
5

>  <is_N_methyl>  (657) 
False

>  <is_a_methyl>  (657) 
False

>  <is_alpha_aa>  (657) 
False

>  <is_beta_aa>  (657) 
True

>  <is_S100_aa>  (657) 
False

>  <Murcko_SMILES>  (657) 


$$$$

     RDKit          2D

 10 11  0  0  0  0  0  0  0  0999 V2000
   -4.9913   -1.2990    0.0000 O   0  0  0  0  0  0  0  0  0  0  0  0
   -4.2413    0.0000    0.0000 C   0  0  0  0  0  0  0  0  0  0  0  0
   -2.7413    0.0000    0.0000 C   0  0  0  0  0  0  0  0  0  0  0  0
   -1.8596    1.2135    0.0000 C   0  0  0  0  0  0  0  0  0  0  0  0
   -0.4330    0.7500    0.0000 C   0  0  0  0  0  0  0  0  0  0  0  0
    0.8660    0.0000    0.0000 C   0  0  0  0  0  0  0  0  0  0  0  0
   -0.4330   -0.7500    0.0000 C   0  0  0  0  0  0  0  0  0  0  0  0
   -1.8596   -1.2135    0.0000 N   0  0  0  0  0  0  0  0  0  0  0  0
   -2.3231   -2.6401    0.0000 R   0  0  0  0  0  1  0  0  0  1  0  0
   -4.9913    1.2990    0.0000 R   0  0  0  0  0  1  0  0  0  2  0  0
  1  2  2  0
  3  2  1  6
  3  4  1  0
  5  4  1  6
  5  6  1  0
  7  6  1  6
  7  8  1  0
  8  9  1  0
  2 10  1  0
  8  3  1  0
  7  5  1  0
M  END
>  <id>  (658) 
0c0aeb69-8081-4a55-86eb-b716cca93da1

>  <Version>  (658) 
0

>  <Alias>  (658) 
(1S,3S,5S)-2ABC[3.1.0]hex3CA

>  <Type>  (658) 
amino_acid

>  <Smiles>  (658) 
O=C([C@@H]1C[C@@H]2C[C@@H]2N1[*:1])[*:2]

>  <ProtectedSmiles>  (658) 
O=C(O)[C@@H]1C[C@@H]2C[C@@H]2N1C(=O)OCC1c2ccccc2-c2ccccc21

>  <CAS>  (658) 
1932109-93-7

>  <User>  (658) 
angelica.l

>  <StereoComment>  (658) 
as drawn

>  <Name>  (658) 
(1S,3S,5S)-2-{[(9H-fluoren-9-yl)methoxy]carbonyl}-2-azabicyclo[3.1.0]hexane-3-carboxylic acid

>  <Code>  (658) 
(1S,3S,5S)-2ABC[3.1.0]hex3CA

>  <AliasLowerCase>  (658) 
(1s,3s,5s)-2abc[3.1.0]hex3ca

>  <LatestVersion>  (658) 
0.0

>  <createdAt>  (658) 
2026-01-14T11:35:21.341Z

>  <updatedAt>  (658) 
2026-01-14T11:35:21.341Z

>  <NumRotatableBonds>  (658) 
1

>  <is_N_methyl>  (658) 
False

>  <is_a_methyl>  (658) 
False

>  <is_alpha_aa>  (658) 
True

>  <is_beta_aa>  (658) 
False

>  <is_S100_aa>  (658) 
False

>  <Murcko_SMILES>  (658) 
C1C[C@@H]2C[C@@H]2N1

$$$$

     RDKit          2D

 11 10  0  0  0  0  0  0  0  0999 V2000
    1.2990   -2.2500    0.0000 O   0  0  0  0  0  0  0  0  0  0  0  0
    2.5981   -1.5000    0.0000 C   0  0  0  0  0  0  0  0  0  0  0  0
    2.5981   -0.0000    0.0000 C   0  0  0  0  0  0  0  0  0  0  0  0
    3.8971    0.7500    0.0000 C   0  0  0  0  0  0  0  0  0  0  0  0
    5.1962   -0.0000    0.0000 C   0  0  0  0  0  0  0  0  0  0  0  0
    6.4952   -0.7500    0.0000 F   0  0  0  0  0  0  0  0  0  0  0  0
    5.9462    1.2990    0.0000 F   0  0  0  0  0  0  0  0  0  0  0  0
    4.4462   -1.2990    0.0000 F   0  0  0  0  0  0  0  0  0  0  0  0
    1.2990    0.7500    0.0000 N   0  0  0  0  0  0  0  0  0  0  0  0
    0.0000    0.0000    0.0000 R   0  0  0  0  0  1  0  0  0  1  0  0
    3.8971   -2.2500    0.0000 R   0  0  0  0  0  1  0  0  0  2  0  0
  1  2  2  0
  2  3  1  0
  3  4  1  1
  4  5  1  0
  5  6  1  0
  5  7  1  0
  5  8  1  0
  3  9  1  0
  9 10  1  0
  2 11  1  0
M  END
>  <id>  (659) 
59cdbd55-6cef-4ff6-8d70-d7ae8e822e8d

>  <Version>  (659) 
0

>  <Alias>  (659) 
CF3Ala

>  <Type>  (659) 
amino_acid

>  <Smiles>  (659) 
O=C([C@H](CC(F)(F)F)N[*:1])[*:2]

>  <ProtectedSmiles>  (659) 
O=C(N[C@@H](CC(F)(F)F)C(=O)O)OCC1c2ccccc2-c2ccccc21

>  <CAS>  (659) 
181128-48-3

>  <User>  (659) 
emile.b

>  <StereoComment>  (659) 
as drawn

>  <Name>  (659) 
Fmoc-Ala(CF3)-OH

>  <Code>  (659) 
CF3Ala

>  <AliasLowerCase>  (659) 
cf3ala

>  <LatestVersion>  (659) 
0.0

>  <createdAt>  (659) 
2026-01-14T11:34:36.070Z

>  <updatedAt>  (659) 
2026-01-14T11:34:36.070Z

>  <NumRotatableBonds>  (659) 
3

>  <is_N_methyl>  (659) 
False

>  <is_a_methyl>  (659) 
False

>  <is_alpha_aa>  (659) 
True

>  <is_beta_aa>  (659) 
False

>  <is_S100_aa>  (659) 
False

>  <Murcko_SMILES>  (659) 


$$$$

     RDKit          2D

 15 15  0  0  0  0  0  0  0  0999 V2000
    4.5000    0.0000    0.0000 N   0  0  0  0  0  0  0  0  0  0  0  0
    3.0000    0.0000    0.0000 C   0  0  0  0  0  0  0  0  0  0  0  0
    1.5000    0.0000    0.0000 C   0  0  0  0  0  0  0  0  0  0  0  0
    0.7500   -1.2990    0.0000 C   0  0  0  0  0  0  0  0  0  0  0  0
   -0.7500   -1.2990    0.0000 C   0  0  0  0  0  0  0  0  0  0  0  0
   -1.5000    0.0000    0.0000 C   0  0  0  0  0  0  0  0  0  0  0  0
   -3.0000    0.0000    0.0000 C   0  0  0  0  0  0  0  0  0  0  0  0
   -3.7500    1.2990    0.0000 C   0  0  0  0  0  0  0  0  0  0  0  0
   -3.0000    2.5981    0.0000 N   0  0  0  0  0  0  0  0  0  0  0  0
   -3.7500    3.8971    0.0000 R   0  0  0  0  0  1  0  0  0  1  0  0
   -5.2500    1.2990    0.0000 C   0  0  0  0  0  0  0  0  0  0  0  0
   -6.0000   -0.0000    0.0000 O   0  0  0  0  0  0  0  0  0  0  0  0
   -6.0000    2.5981    0.0000 R   0  0  0  0  0  1  0  0  0  2  0  0
   -0.7500    1.2990    0.0000 C   0  0  0  0  0  0  0  0  0  0  0  0
    0.7500    1.2990    0.0000 C   0  0  0  0  0  0  0  0  0  0  0  0
  1  2  3  0
  2  3  1  0
  3  4  2  0
  4  5  1  0
  5  6  2  0
  6  7  1  0
  8  7  1  1
  8  9  1  0
  9 10  1  0
  8 11  1  0
 11 12  2  0
 11 13  1  0
  6 14  1  0
 14 15  2  0
 15  3  1  0
M  END
>  <id>  (660) 
20f3be54-77af-419c-b443-1c7f98a0365b

>  <Version>  (660) 
0

>  <Alias>  (660) 
L-4CNPhe

>  <Type>  (660) 
amino_acid

>  <Smiles>  (660) 
N#Cc1ccc(C[C@H](N[*:1])C(=O)[*:2])cc1

>  <ProtectedSmiles>  (660) 
N#Cc1ccc(C[C@H](NC(=O)OCC2c3ccccc3-c3ccccc32)C(=O)O)cc1

>  <CAS>  (660) 
173963-93-4

>  <User>  (660) 
sevan.h

>  <StereoComment>  (660) 
as drawn

>  <Name>  (660) 
Fmoc-L-4-cyanophenylalanine

>  <Code>  (660) 
L-4CNPhe

>  <AliasLowerCase>  (660) 
l-4cnphe

>  <LatestVersion>  (660) 
0.0

>  <createdAt>  (660) 
2026-01-14T12:15:55.170Z

>  <updatedAt>  (660) 
2026-01-14T12:15:55.170Z

>  <NumRotatableBonds>  (660) 
4

>  <is_N_methyl>  (660) 
False

>  <is_a_methyl>  (660) 
False

>  <is_alpha_aa>  (660) 
True

>  <is_beta_aa>  (660) 
False

>  <is_S100_aa>  (660) 
False

>  <Murcko_SMILES>  (660) 
c1ccccc1

$$$$

     RDKit          2D

 13 13  0  0  0  0  0  0  0  0999 V2000
    6.0000    0.0000    0.0000 O   0  0  0  0  0  0  0  0  0  0  0  0
    5.2500   -1.2990    0.0000 C   0  0  0  0  0  0  0  0  0  0  0  0
    3.7500   -1.2990    0.0000 C   0  0  0  0  0  0  0  0  0  0  0  0
    3.0000    0.0000    0.0000 C   0  0  0  0  0  0  0  0  0  0  0  0
    3.7500    1.2990    0.0000 N   0  0  0  0  0  0  0  0  0  0  0  0
    5.2500    1.2990    0.0000 R   0  0  0  0  0  1  0  0  0  1  0  0
    1.5000    0.0000    0.0000 C   0  0  0  0  0  0  0  0  0  0  0  0
    0.7500   -1.2990    0.0000 C   0  0  0  0  0  0  0  0  0  0  0  0
   -0.7500   -1.2990    0.0000 C   0  0  0  0  0  0  0  0  0  0  0  0
   -1.5000    0.0000    0.0000 C   0  0  0  0  0  0  0  0  0  0  0  0
   -0.7500    1.2990    0.0000 C   0  0  0  0  0  0  0  0  0  0  0  0
    0.7500    1.2990    0.0000 C   0  0  0  0  0  0  0  0  0  0  0  0
    6.0000   -2.5981    0.0000 R   0  0  0  0  0  1  0  0  0  2  0  0
  1  2  2  0
  2  3  1  0
  4  3  1  1
  4  5  1  0
  5  6  1  0
  4  7  1  0
  7  8  2  0
  8  9  1  0
  9 10  2  0
 10 11  1  0
 11 12  2  0
  2 13  1  0
 12  7  1  0
M  END
>  <id>  (661) 
b9b50833-cfd1-4404-9959-8bbc41149494

>  <Version>  (661) 
0

>  <Alias>  (661) 
L-3Appa

>  <Type>  (661) 
amino_acid

>  <Smiles>  (661) 
O=C(C[C@H](N[*:1])c1ccccc1)[*:2]

>  <ProtectedSmiles>  (661) 
O=C(O)C[C@H](NC(=O)OCC1c2ccccc2-c2ccccc21)c1ccccc1

>  <CAS>  (661) 
209252-15-3

>  <User>  (661) 
mischa.s

>  <StereoComment>  (661) 
as drawn

>  <Name>  (661) 
L-3Appa

>  <Code>  (661) 
L-3Appa

>  <AliasLowerCase>  (661) 
l-3appa

>  <LatestVersion>  (661) 
0.0

>  <createdAt>  (661) 
2026-01-14T11:37:04.640Z

>  <updatedAt>  (661) 
2026-01-14T11:37:04.640Z

>  <NumRotatableBonds>  (661) 
4

>  <is_N_methyl>  (661) 
False

>  <is_a_methyl>  (661) 
False

>  <is_alpha_aa>  (661) 
False

>  <is_beta_aa>  (661) 
True

>  <is_S100_aa>  (661) 
False

>  <Murcko_SMILES>  (661) 
c1ccccc1

$$$$

     RDKit          2D

  0  0  0  0  0  0  0  0  0  0999 V3000
M  V30 BEGIN CTAB
M  V30 COUNTS 14 15 0 0 0
M  V30 BEGIN ATOM
M  V30 1 O 3.525976 -1.299038 0.000000 0
M  V30 2 C 2.775976 0.000000 0.000000 0
M  V30 3 C 1.275976 0.000000 0.000000 0
M  V30 4 C 0.394298 1.213525 0.000000 0
M  V30 5 N -1.032286 0.750000 0.000000 0
M  V30 6 "NOT [H]" -2.245812 1.631678 0.000000 1
M  V30 7 C -1.032286 -0.750000 0.000000 0
M  V30 8 C 0.394298 -1.213525 0.000000 0
M  V30 9 C 0.857824 -2.640110 0.000000 0
M  V30 10 C 2.284409 -3.103636 0.000000 0
M  V30 11 C 2.284409 -4.603636 0.000000 0
M  V30 12 C 0.857824 -5.067161 0.000000 0
M  V30 13 C -0.023854 -3.853636 0.000000 0
M  V30 14 "NOT [H]" 3.525976 1.299038 0.000000 2
M  V30 END ATOM
M  V30 BEGIN BOND
M  V30 1 2 1 2
M  V30 2 1 3 2 CFG=1
M  V30 3 1 3 4
M  V30 4 1 4 5
M  V30 5 1 5 6
M  V30 6 1 5 7
M  V30 7 1 7 8
M  V30 8 1 8 9 CFG=3
M  V30 9 1 9 10
M  V30 10 1 10 11
M  V30 11 1 11 12
M  V30 12 1 12 13
M  V30 13 1 2 14
M  V30 14 1 8 3
M  V30 15 1 13 9
M  V30 END BOND
M  V30 BEGIN COLLECTION
M  V30 MDLV30/STERAC1 ATOMS=(2 3 8)
M  V30 END COLLECTION
M  V30 END CTAB
M  END
>  <id>  (662) 
229a9d7b-860b-4d32-bd12-aa3954d8cd82

>  <Version>  (662) 
0

>  <Alias>  (662) 
transCyPentPyrrCA

>  <Type>  (662) 
amino_acid

>  <Smiles>  (662) 
O=C([C@@H]1CN([*:1])C[C@H]1C1CCCC1)[*:2] |&1:2,7|

>  <ProtectedSmiles>  (662) 
O=C(O)[C@@H]1CN(C(=O)OCC2c3ccccc3-c3ccccc32)C[C@H]1C1CCCC1 |&1:3,24|

>  <CAS>  (662) 
2137851-97-7

>  <User>  (662) 
cs@orbismedicines.com

>  <StereoComment>  (662) 
rac-trans

>  <Name>  (662) 
rac-(3R,4R)-4-cyclopentyl-1-{[(9H-fluoren-9-yl)methoxy]carbonyl}pyrrolidine-3-carboxylic acid

>  <Code>  (662) 
transCyPentPyrrCA

>  <AliasLowerCase>  (662) 
transcypentpyrrca

>  <LatestVersion>  (662) 
0.0

>  <createdAt>  (662) 
2026-02-03T08:56:00.233Z

>  <updatedAt>  (662) 
2026-02-03T08:56:00.233Z

>  <NumRotatableBonds>  (662) 
2

>  <is_N_methyl>  (662) 
False

>  <is_a_methyl>  (662) 
False

>  <is_alpha_aa>  (662) 
False

>  <is_beta_aa>  (662) 
True

>  <is_S100_aa>  (662) 
False

>  <Murcko_SMILES>  (662) 
C1CCC([C@H]2CCNC2)C1 |&1:4|

$$$$

     RDKit          2D

 15 15  0  0  0  0  0  0  0  0999 V2000
    5.2500   -3.8971    0.0000 O   0  0  0  0  0  0  0  0  0  0  0  0
    6.0000   -2.5981    0.0000 C   0  0  0  0  0  0  0  0  0  0  0  0
    5.2500   -1.2990    0.0000 C   0  0  0  0  0  0  0  0  0  0  0  0
    3.7500   -1.2990    0.0000 C   0  0  0  0  0  0  0  0  0  0  0  0
    3.0000    0.0000    0.0000 C   0  0  0  0  0  0  0  0  0  0  0  0
    1.5000    0.0000    0.0000 C   0  0  0  0  0  0  0  0  0  0  0  0
    0.7500   -1.2990    0.0000 C   0  0  0  0  0  0  0  0  0  0  0  0
   -0.7500   -1.2990    0.0000 C   0  0  0  0  0  0  0  0  0  0  0  0
   -1.5000    0.0000    0.0000 C   0  0  0  0  0  0  0  0  0  0  0  0
   -3.0000    0.0000    0.0000 F   0  0  0  0  0  0  0  0  0  0  0  0
   -0.7500    1.2990    0.0000 C   0  0  0  0  0  0  0  0  0  0  0  0
    0.7500    1.2990    0.0000 C   0  0  0  0  0  0  0  0  0  0  0  0
    3.0000   -2.5981    0.0000 N   0  0  0  0  0  0  0  0  0  0  0  0
    3.7500   -3.8971    0.0000 R   0  0  0  0  0  1  0  0  0  1  0  0
    7.5000   -2.5981    0.0000 R   0  0  0  0  0  1  0  0  0  2  0  0
  1  2  2  0
  2  3  1  0
  4  3  1  1
  4  5  1  0
  5  6  1  0
  6  7  2  0
  7  8  1  0
  8  9  2  0
  9 10  1  0
  9 11  1  0
 11 12  2  0
  4 13  1  0
 13 14  1  0
  2 15  1  0
 12  6  1  0
M  END
>  <id>  (663) 
3b4cbb84-758d-4415-a5dc-a27c6f22b84c

>  <Version>  (663) 
0

>  <Alias>  (663) 
B-h(4FPhe)

>  <Type>  (663) 
amino_acid

>  <Smiles>  (663) 
O=C(C[C@H](Cc1ccc(F)cc1)N[*:1])[*:2]

>  <ProtectedSmiles>  (663) 
O=C(O)C[C@H](Cc1ccc(F)cc1)NC(=O)OCC1c2ccccc2-c2ccccc21

>  <CAS>  (663) 
270062-83-4

>  <User>  (663) 
sevan.h

>  <StereoComment>  (663) 
as drawn

>  <Name>  (663) 
Fmoc-(S)-3-amino-4-(4-fluoro-phenyl)-butyric acid

>  <Code>  (663) 
B-h(4FPhe)

>  <AliasLowerCase>  (663) 
b-h(4fphe)

>  <LatestVersion>  (663) 
0.0

>  <createdAt>  (663) 
2026-01-14T12:15:02.896Z

>  <updatedAt>  (663) 
2026-01-14T12:15:02.896Z

>  <NumRotatableBonds>  (663) 
5

>  <is_N_methyl>  (663) 
False

>  <is_a_methyl>  (663) 
False

>  <is_alpha_aa>  (663) 
False

>  <is_beta_aa>  (663) 
True

>  <is_S100_aa>  (663) 
False

>  <Murcko_SMILES>  (663) 
c1ccccc1

$$$$

     RDKit          2D

 17 18  0  0  0  0  0  0  0  0999 V2000
   -5.4933   -4.1162    0.0000 O   0  0  0  0  0  0  0  0  0  0  0  0
   -4.3786   -5.1199    0.0000 C   0  0  0  0  0  0  0  0  0  0  0  0
   -2.9520   -4.6564    0.0000 C   0  0  0  0  0  0  0  0  0  0  0  0
   -2.6401   -3.1891    0.0000 C   0  0  0  0  0  0  0  0  0  0  0  0
   -1.2135   -2.7256    0.0000 C   0  0  0  0  0  0  0  0  0  0  0  0
   -0.0000   -3.6073    0.0000 C   0  0  0  0  0  0  0  0  0  0  0  0
    1.2135   -2.7256    0.0000 N   0  0  0  0  0  0  0  0  0  0  0  0
    0.7500   -1.2990    0.0000 C   0  0  0  0  0  0  0  0  0  0  0  0
    1.5000    0.0000    0.0000 C   0  0  0  0  0  0  0  0  0  0  0  0
    0.7500    1.2990    0.0000 C   0  0  0  0  0  0  0  0  0  0  0  0
    1.5000    2.5981    0.0000 Cl  0  0  0  0  0  0  0  0  0  0  0  0
   -0.7500    1.2990    0.0000 C   0  0  0  0  0  0  0  0  0  0  0  0
   -1.5000    0.0000    0.0000 C   0  0  0  0  0  0  0  0  0  0  0  0
   -0.7500   -1.2990    0.0000 C   0  0  0  0  0  0  0  0  0  0  0  0
   -1.8373   -5.6601    0.0000 N   0  0  0  0  0  0  0  0  0  0  0  0
   -2.1491   -7.1273    0.0000 R   0  0  0  0  0  1  0  0  0  1  0  0
   -4.6904   -6.5871    0.0000 R   0  0  0  0  0  1  0  0  0  2  0  0
  1  2  2  0
  2  3  1  0
  3  4  1  6
  4  5  1  0
  5  6  2  0
  6  7  1  0
  7  8  1  0
  8  9  2  0
  9 10  1  0
 10 11  1  0
 10 12  2  0
 12 13  1  0
 13 14  2  0
  3 15  1  0
 15 16  1  0
  2 17  1  0
 14  5  1  0
 14  8  1  0
M  END
>  <id>  (664) 
5e077796-6ff5-4bce-b78d-437d1bd3d84c

>  <Version>  (664) 
0

>  <Alias>  (664) 
6ClTrp

>  <Type>  (664) 
amino_acid

>  <Smiles>  (664) 
O=C([C@H](Cc1c[nH]c2cc(Cl)ccc12)N[*:1])[*:2]

>  <ProtectedSmiles>  (664) 
O=C(N[C@@H](Cc1c[nH]c2cc(Cl)ccc12)C(=O)O)OCC1c2ccccc2-c2ccccc21

>  <CAS>  (664) 
908847-42-7

>  <User>  (664) 
sevan.h

>  <StereoComment>  (664) 
as drawn

>  <Name>  (664) 
Fmoc-6-Chlorotryptophan

>  <Code>  (664) 
6ClTrp

>  <AliasLowerCase>  (664) 
6cltrp

>  <LatestVersion>  (664) 
0.0

>  <createdAt>  (664) 
2026-01-14T12:16:36.975Z

>  <updatedAt>  (664) 
2026-01-14T12:16:36.975Z

>  <NumRotatableBonds>  (664) 
4

>  <is_N_methyl>  (664) 
False

>  <is_a_methyl>  (664) 
False

>  <is_alpha_aa>  (664) 
True

>  <is_beta_aa>  (664) 
False

>  <is_S100_aa>  (664) 
False

>  <Murcko_SMILES>  (664) 
c1ccc2[nH]ccc2c1

$$$$

     RDKit          2D

  9  8  0  0  0  0  0  0  0  0999 V2000
    6.4952   -0.7500    0.0000 N   0  0  0  0  0  0  0  0  0  0  0  0
    5.1962   -0.0000    0.0000 C   0  0  0  0  0  0  0  0  0  0  0  0
    3.8971    0.7500    0.0000 C   0  0  0  0  0  0  0  0  0  0  0  0
    2.5981   -0.0000    0.0000 C   0  0  0  0  0  0  0  0  0  0  0  0
    1.2990    0.7500    0.0000 N   0  0  0  0  0  0  0  0  0  0  0  0
    0.0000    0.0000    0.0000 R   0  0  0  0  0  1  0  0  0  1  0  0
    2.5981   -1.5000    0.0000 C   0  0  0  0  0  0  0  0  0  0  0  0
    1.2990   -2.2500    0.0000 O   0  0  0  0  0  0  0  0  0  0  0  0
    3.8971   -2.2500    0.0000 R   0  0  0  0  0  1  0  0  0  2  0  0
  1  2  3  0
  2  3  1  0
  4  3  1  6
  4  5  1  0
  5  6  1  0
  4  7  1  0
  7  8  2  0
  7  9  1  0
M  END
>  <id>  (665) 
05dd8a9f-e480-4b8f-9b9a-724d44af999d

>  <Version>  (665) 
0

>  <Alias>  (665) 
D-AlaCN

>  <Type>  (665) 
amino_acid

>  <Smiles>  (665) 
N#CC[C@@H](N[*:1])C(=O)[*:2]

>  <ProtectedSmiles>  (665) 
N#CC[C@@H](NC(=O)OCC1c2ccccc2-c2ccccc21)C(=O)O

>  <CAS>  (665) 
1820575-73-2

>  <User>  (665) 
sevan.h

>  <StereoComment>  (665) 
as drawn

>  <Name>  (665) 
Fmoc-D-Ala(3-CN)-OH

>  <Code>  (665) 
D-AlaCN

>  <AliasLowerCase>  (665) 
d-alacn

>  <LatestVersion>  (665) 
0.0

>  <createdAt>  (665) 
2026-01-14T12:15:22.994Z

>  <updatedAt>  (665) 
2026-01-14T12:15:22.994Z

>  <NumRotatableBonds>  (665) 
3

>  <is_N_methyl>  (665) 
False

>  <is_a_methyl>  (665) 
False

>  <is_alpha_aa>  (665) 
True

>  <is_beta_aa>  (665) 
False

>  <is_S100_aa>  (665) 
False

>  <Murcko_SMILES>  (665) 


$$$$

     RDKit          2D

  0  0  0  0  0  0  0  0  0  0999 V3000
M  V30 BEGIN CTAB
M  V30 COUNTS 15 16 0 0 0
M  V30 BEGIN ATOM
M  V30 1 O 3.531953 -0.213567 0.000000 0
M  V30 2 C 3.995479 -1.640152 0.000000 0
M  V30 3 C 2.991783 -2.754869 0.000000 0
M  V30 4 C 1.500000 -2.598076 0.000000 0
M  V30 5 C 0.750000 -1.299038 0.000000 0
M  V30 6 C 1.500000 0.000000 0.000000 0
M  V30 7 C 0.750000 1.299038 0.000000 0
M  V30 8 C -0.750000 1.299038 0.000000 0
M  V30 9 C -1.500000 0.000000 0.000000 0
M  V30 10 C -0.750000 -1.299038 0.000000 0
M  V30 11 C 0.889895 -3.968394 0.000000 0
M  V30 12 C 2.004612 -4.972090 0.000000 0
M  V30 13 N 3.303650 -4.222090 0.000000 0
M  V30 14 "NOT [H]" 4.673969 -4.832195 0.000000 1
M  V30 15 "NOT [H]" 5.462700 -1.952019 0.000000 2
M  V30 END ATOM
M  V30 BEGIN BOND
M  V30 1 2 1 2
M  V30 2 1 3 2 CFG=1
M  V30 3 1 3 4
M  V30 4 1 4 5 CFG=1
M  V30 5 2 5 6
M  V30 6 1 6 7
M  V30 7 2 7 8
M  V30 8 1 8 9
M  V30 9 2 9 10
M  V30 10 1 4 11
M  V30 11 1 11 12
M  V30 12 1 12 13
M  V30 13 1 13 14
M  V30 14 1 2 15
M  V30 15 1 13 3
M  V30 16 1 10 5
M  V30 END BOND
M  V30 BEGIN COLLECTION
M  V30 MDLV30/STERAC1 ATOMS=(2 3 4)
M  V30 END COLLECTION
M  V30 END CTAB
M  END
>  <id>  (666) 
fb0809a7-dc7c-4821-a027-47c12cdf5372

>  <Version>  (666) 
0

>  <Alias>  (666) 
rac-cis-Pro(3-Ph)

>  <Type>  (666) 
amino_acid

>  <Smiles>  (666) 
O=C([C@@H]1[C@H](c2ccccc2)CCN1[*:1])[*:2] |&1:2,3|

>  <ProtectedSmiles>  (666) 
O=C(O)[C@@H]1[C@H](c2ccccc2)CCN1C(=O)OCC1c2ccccc2-c2ccccc21 |&1:3,4|

>  <CAS>  (666) 
181824-45-3

>  <User>  (666) 
mischa.s

>  <StereoComment>  (666) 
as drawn

>  <Name>  (666) 
rac-(2S,3S)-1-(9H-fluoren-9-ylmethoxycarbonyl)-3-phenyl-pyrrolidine-2-carboxylic acid

>  <Code>  (666) 
rac-cis-Pro(3-Ph)

>  <AliasLowerCase>  (666) 
rac-cis-pro(3-ph)

>  <LatestVersion>  (666) 
0.0

>  <createdAt>  (666) 
2026-01-14T11:36:27.549Z

>  <updatedAt>  (666) 
2026-01-14T11:36:27.549Z

>  <NumRotatableBonds>  (666) 
2

>  <is_N_methyl>  (666) 
False

>  <is_a_methyl>  (666) 
False

>  <is_alpha_aa>  (666) 
True

>  <is_beta_aa>  (666) 
False

>  <is_S100_aa>  (666) 
False

>  <Murcko_SMILES>  (666) 
c1ccc([C@@H]2CCNC2)cc1 |&1:4|

$$$$

     RDKit          2D

 12 12  0  0  0  0  0  0  0  0999 V2000
    4.3191   -1.0261    0.0000 O   0  0  0  0  0  0  0  0  0  0  0  0
    4.0586    0.4512    0.0000 C   0  0  0  0  0  0  0  0  0  0  0  0
    2.6491    0.9642    0.0000 C   0  0  0  0  0  0  0  0  0  0  0  0
    1.5000    0.0000    0.0000 C   0  0  0  0  0  0  0  0  0  0  0  0
    2.6491   -0.9642    0.0000 N   0  0  0  0  0  0  0  0  0  0  0  0
    2.3886   -2.4414    0.0000 R   0  0  0  0  0  1  0  0  0  1  0  0
    0.7500   -1.2990    0.0000 C   0  0  0  0  0  0  0  0  0  0  0  0
   -0.7500   -1.2990    0.0000 C   0  0  0  0  0  0  0  0  0  0  0  0
   -1.5000    0.0000    0.0000 C   0  0  0  0  0  0  0  0  0  0  0  0
   -0.7500    1.2990    0.0000 O   0  0  0  0  0  0  0  0  0  0  0  0
    0.7500    1.2990    0.0000 C   0  0  0  0  0  0  0  0  0  0  0  0
    5.2077    1.4153    0.0000 R   0  0  0  0  0  1  0  0  0  2  0  0
  1  2  2  0
  2  3  1  0
  3  4  1  0
  4  5  1  0
  5  6  1  0
  4  7  1  0
  7  8  1  0
  8  9  1  0
  9 10  1  0
 10 11  1  0
  2 12  1  0
 11  4  1  0
M  END
>  <id>  (667) 
b4ffc32c-8749-4aef-8e5f-0a8eb40cbc1f

>  <Version>  (667) 
0

>  <Alias>  (667) 
OxanAcA

>  <Type>  (667) 
amino_acid

>  <Smiles>  (667) 
O=C(CC1(N[*:1])CCCOC1)[*:2]

>  <ProtectedSmiles>  (667) 
O=C(O)CC1(NC(=O)OCC2c3ccccc3-c3ccccc32)CCCOC1

>  <CAS>  (667) 
2095410-11-8

>  <User>  (667) 
Sevan.habeshian@orbismedicines.com

>  <StereoComment>  (667) 
as drawn

>  <Name>  (667) 
N/A

>  <Code>  (667) 
OxanAcA

>  <AliasLowerCase>  (667) 
oxanaca

>  <LatestVersion>  (667) 
0.0

>  <createdAt>  (667) 
2026-02-13T09:56:35.395Z

>  <updatedAt>  (667) 
2026-02-13T09:56:35.395Z

>  <NumRotatableBonds>  (667) 
3

>  <is_N_methyl>  (667) 
False

>  <is_a_methyl>  (667) 
False

>  <is_alpha_aa>  (667) 
False

>  <is_beta_aa>  (667) 
True

>  <is_S100_aa>  (667) 
False

>  <Murcko_SMILES>  (667) 
C1CCOCC1

$$$$

     RDKit          2D

 13 14  0  0  0  0  0  0  0  0999 V2000
    3.7548   -2.1855    0.0000 O   0  0  0  0  0  0  0  0  0  0  0  0
    2.6401   -3.1891    0.0000 C   0  0  0  0  0  0  0  0  0  0  0  0
    1.2135   -2.7256    0.0000 C   0  0  0  0  0  0  0  0  0  0  0  0
    0.0000   -3.6073    0.0000 N   0  0  0  0  0  0  0  0  0  0  0  0
   -1.2135   -2.7256    0.0000 N   0  0  0  0  0  0  0  0  0  0  0  0
   -0.7500   -1.2990    0.0000 C   0  0  0  0  0  0  0  0  0  0  0  0
    0.7500   -1.2990    0.0000 C   0  0  0  0  0  0  0  0  0  0  0  0
    1.5000    0.0000    0.0000 C   0  0  0  0  0  0  0  0  0  0  0  0
    0.7500    1.2990    0.0000 N   0  0  0  0  0  0  0  0  0  0  0  0
    1.5000    2.5981    0.0000 R   0  0  0  0  0  1  0  0  0  1  0  0
   -0.7500    1.2990    0.0000 C   0  0  0  0  0  0  0  0  0  0  0  0
   -1.5000    0.0000    0.0000 C   0  0  0  0  0  0  0  0  0  0  0  0
    2.9520   -4.6564    0.0000 R   0  0  0  0  0  1  0  0  0  2  0  0
  1  2  2  0
  2  3  1  0
  3  4  1  0
  4  5  1  0
  5  6  2  0
  6  7  1  0
  7  8  1  0
  8  9  1  0
  9 10  1  0
  9 11  1  0
 11 12  1  0
  2 13  1  0
  7  3  2  0
 12  6  1  0
M  END
>  <id>  (668) 
7d372b3b-e2be-434c-9467-f732c001ba3a

>  <Version>  (668) 
0

>  <Alias>  (668) 
PyzPyr

>  <Type>  (668) 
amino_acid

>  <Smiles>  (668) 
O=C(c1[nH]nc2c1CN([*:1])CC2)[*:2]

>  <ProtectedSmiles>  (668) 
O=C(O)c1[nH]nc2c1CN(C(=O)OCC1c3ccccc3-c3ccccc31)CC2

>  <CAS>  (668) 
2091633-90-6

>  <User>  (668) 
gontran.s

>  <StereoComment>  (668) 
as drawn

>  <Name>  (668) 
5-{[(9H-fluoren-9-yl)methoxy]carbonyl}-2H,4H,5H,6H,7H-pyrazolo[4,3-c]pyridine-3-carboxylic acid

>  <Code>  (668) 
PyzPyr

>  <AliasLowerCase>  (668) 
pyzpyr

>  <LatestVersion>  (668) 
0.0

>  <createdAt>  (668) 
2026-01-14T11:38:37.397Z

>  <updatedAt>  (668) 
2026-01-14T11:38:37.397Z

>  <NumRotatableBonds>  (668) 
1

>  <is_N_methyl>  (668) 
False

>  <is_a_methyl>  (668) 
False

>  <is_alpha_aa>  (668) 
False

>  <is_beta_aa>  (668) 
False

>  <is_S100_aa>  (668) 
False

>  <Murcko_SMILES>  (668) 
c1[nH]nc2c1CNCC2

$$$$

     RDKit          2D

 13 12  0  0  0  0  0  0  0  0999 V2000
    9.0933    2.2500    0.0000 N   0  0  0  0  0  0  0  0  0  0  0  0
    9.0933    0.7500    0.0000 C   0  0  0  0  0  0  0  0  0  0  0  0
   10.3923   -0.0000    0.0000 N   0  0  0  0  0  0  0  0  0  0  0  0
    7.7942   -0.0000    0.0000 N   0  0  0  0  0  0  0  0  0  0  0  0
    6.4952    0.7500    0.0000 C   0  0  0  0  0  0  0  0  0  0  0  0
    5.1962   -0.0000    0.0000 C   0  0  0  0  0  0  0  0  0  0  0  0
    3.8971    0.7500    0.0000 C   0  0  0  0  0  0  0  0  0  0  0  0
    2.5981   -0.0000    0.0000 C   0  0  0  0  0  0  0  0  0  0  0  0
    1.2990    0.7500    0.0000 N   0  0  0  0  0  0  0  0  0  0  0  0
    0.0000    0.0000    0.0000 R   0  0  0  0  0  1  0  0  0  1  0  0
    2.5981   -1.5000    0.0000 C   0  0  0  0  0  0  0  0  0  0  0  0
    1.2990   -2.2500    0.0000 O   0  0  0  0  0  0  0  0  0  0  0  0
    3.8971   -2.2500    0.0000 R   0  0  0  0  0  1  0  0  0  2  0  0
  1  2  2  0
  2  3  1  0
  2  4  1  0
  4  5  1  0
  5  6  1  0
  6  7  1  0
  8  7  1  1
  8  9  1  0
  9 10  1  0
  8 11  1  0
 11 12  2  0
 11 13  1  0
M  END
>  <id>  (669) 
12bca8b2-b93f-45be-80aa-28acc50b5e89

>  <Version>  (669) 
0

>  <Alias>  (669) 
Arg(Boc)

>  <Type>  (669) 
amino_acid

>  <Smiles>  (669) 
N=C(N)NCCC[C@H](N[*:1])C(=O)[*:2]

>  <ProtectedSmiles>  (669) 
CC(C)(C)OC(=O)NC(=N)N(CCC[C@H](NC(=O)OCC1c2ccccc2-c2ccccc21)C(=O)O)C(=O)OC(C)(C)C

>  <CAS>  (669) 
143824-77-5

>  <User>  (669) 
sevan.h

>  <StereoComment>  (669) 
as drawn

>  <Name>  (669) 
Fmoc-Arg(Boc)2-OH

>  <Code>  (669) 
Arg(Boc)

>  <AliasLowerCase>  (669) 
arg(boc)

>  <LatestVersion>  (669) 
0.0

>  <createdAt>  (669) 
2026-01-14T12:15:46.386Z

>  <updatedAt>  (669) 
2026-01-14T12:15:46.386Z

>  <NumRotatableBonds>  (669) 
6

>  <is_N_methyl>  (669) 
False

>  <is_a_methyl>  (669) 
False

>  <is_alpha_aa>  (669) 
True

>  <is_beta_aa>  (669) 
False

>  <is_S100_aa>  (669) 
False

>  <Murcko_SMILES>  (669) 


$$$$

     RDKit          2D

 14 14  0  0  0  0  0  0  0  0999 V2000
    1.5000   -2.5981    0.0000 O   0  0  0  0  0  0  0  0  0  0  0  0
    3.0000   -2.5981    0.0000 C   0  0  0  0  0  0  0  0  0  0  0  0
    3.7500   -1.2990    0.0000 C   0  0  0  0  0  0  0  0  0  0  0  0
    5.2500   -1.2990    0.0000 C   0  0  0  0  0  0  0  0  0  0  0  0
    6.0000   -2.5981    0.0000 N   0  0  0  0  0  0  0  0  0  0  0  0
    7.5000   -2.5981    0.0000 R   0  0  0  0  0  1  0  0  0  1  0  0
    3.0000    0.0000    0.0000 C   0  0  0  0  0  0  0  0  0  0  0  0
    1.5000    0.0000    0.0000 C   0  0  0  0  0  0  0  0  0  0  0  0
    0.7500   -1.2990    0.0000 C   0  0  0  0  0  0  0  0  0  0  0  0
   -0.7500   -1.2990    0.0000 C   0  0  0  0  0  0  0  0  0  0  0  0
   -1.5000    0.0000    0.0000 C   0  0  0  0  0  0  0  0  0  0  0  0
   -0.7500    1.2990    0.0000 C   0  0  0  0  0  0  0  0  0  0  0  0
    0.7500    1.2990    0.0000 C   0  0  0  0  0  0  0  0  0  0  0  0
    3.7500   -3.8971    0.0000 R   0  0  0  0  0  1  0  0  0  2  0  0
  1  2  2  0
  2  3  1  0
  3  4  1  1
  4  5  1  0
  5  6  1  0
  3  7  1  0
  7  8  1  0
  8  9  2  0
  9 10  1  0
 10 11  2  0
 11 12  1  0
 12 13  2  0
  2 14  1  0
 13  8  1  0
M  END
>  <id>  (670) 
740e9eb6-fb8e-479d-9397-824b86aa27ac

>  <Version>  (670) 
0

>  <Alias>  (670) 
(2S)-BnPA

>  <Type>  (670) 
amino_acid

>  <Smiles>  (670) 
O=C([C@H](CN[*:1])Cc1ccccc1)[*:2]

>  <ProtectedSmiles>  (670) 
O=C(NC[C@H](Cc1ccccc1)C(=O)O)OCC1c2ccccc2-c2ccccc21

>  <CAS>  (670) 
203854-62-0

>  <User>  (670) 
mischa.s

>  <StereoComment>  (670) 
as drawn

>  <Name>  (670) 
(S)-3-((((9H-Fluoren-9-yl)methoxy)carbonyl)amino)-2-benzylpropanoic acid

>  <Code>  (670) 
(2S)-BnPA

>  <AliasLowerCase>  (670) 
(2s)-bnpa

>  <LatestVersion>  (670) 
0.0

>  <createdAt>  (670) 
2026-01-14T11:33:26.223Z

>  <updatedAt>  (670) 
2026-01-14T11:33:26.223Z

>  <NumRotatableBonds>  (670) 
5

>  <is_N_methyl>  (670) 
False

>  <is_a_methyl>  (670) 
False

>  <is_alpha_aa>  (670) 
False

>  <is_beta_aa>  (670) 
True

>  <is_S100_aa>  (670) 
False

>  <Murcko_SMILES>  (670) 
c1ccccc1

$$$$

     RDKit          2D

 13 13  0  0  0  0  0  0  0  0999 V2000
    3.7500   -1.2990    0.0000 C   0  0  0  0  0  0  0  0  0  0  0  0
    3.0000    0.0000    0.0000 C   0  0  0  0  0  0  0  0  0  0  0  0
    3.7500    1.2990    0.0000 C   0  0  0  0  0  0  0  0  0  0  0  0
    3.0000    2.5981    0.0000 O   0  0  0  0  0  0  0  0  0  0  0  0
    5.2500    1.2990    0.0000 R   0  0  0  0  0  1  0  0  0  2  0  0
    1.5000    0.0000    0.0000 N   0  0  0  0  0  0  0  0  0  0  0  0
    0.7500   -1.2990    0.0000 C   0  0  0  0  0  0  0  0  0  0  0  0
   -0.7500   -1.2990    0.0000 C   0  0  0  0  0  0  0  0  0  0  0  0
   -1.5000    0.0000    0.0000 N   0  0  0  0  0  0  0  0  0  0  0  0
   -3.0000    0.0000    0.0000 R   0  0  0  0  0  1  0  0  0  1  0  0
   -0.7500    1.2990    0.0000 C   0  0  0  0  0  0  0  0  0  0  0  0
    0.7500    1.2990    0.0000 C   0  0  0  0  0  0  0  0  0  0  0  0
    1.5000    2.5981    0.0000 O   0  0  0  0  0  0  0  0  0  0  0  0
  1  2  1  0
  2  3  1  0
  3  4  2  0
  3  5  1  0
  2  6  1  0
  6  7  1  0
  7  8  1  0
  8  9  1  0
  9 10  1  0
  9 11  1  0
 11 12  1  0
 12 13  2  0
 12  6  1  0
M  END
>  <id>  (671) 
cc2c239a-e842-4e59-bd38-6c4723f1d489

>  <Version>  (671) 
0

>  <Alias>  (671) 
2OxPipPA

>  <Type>  (671) 
amino_acid

>  <Smiles>  (671) 
CC(C(=O)[*:2])N1CCN([*:1])CC1=O

>  <ProtectedSmiles>  (671) 
CC(C(=O)O)N1CCN(C(=O)OCC2c3ccccc3-c3ccccc32)CC1=O

>  <CAS>  (671) 
2137493-73-1

>  <User>  (671) 
Sevan.habeshian@orbismedicines.com

>  <StereoComment>  (671) 
as drawn

>  <Name>  (671) 
N/A

>  <Code>  (671) 
2OxPipPA

>  <AliasLowerCase>  (671) 
2oxpippa

>  <LatestVersion>  (671) 
0.0

>  <createdAt>  (671) 
2026-02-13T09:56:35.517Z

>  <updatedAt>  (671) 
2026-02-13T09:56:35.517Z

>  <NumRotatableBonds>  (671) 
2

>  <is_N_methyl>  (671) 
False

>  <is_a_methyl>  (671) 
False

>  <is_alpha_aa>  (671) 
False

>  <is_beta_aa>  (671) 
False

>  <is_S100_aa>  (671) 
False

>  <Murcko_SMILES>  (671) 
O=C1CNCCN1

$$$$

     RDKit          2D

 10 10  0  0  0  0  0  0  0  0999 V2000
    2.7760    0.0000    0.0000 C   0  0  0  0  0  0  0  0  0  0  0  0
    1.2760    0.0000    0.0000 C   0  0  0  0  0  0  0  0  0  0  0  0
    0.3943    1.2135    0.0000 C   0  0  0  0  0  0  0  0  0  0  0  0
   -1.0323    0.7500    0.0000 C   0  0  0  0  0  0  0  0  0  0  0  0
   -1.0323   -0.7500    0.0000 C   0  0  0  0  0  0  0  0  0  0  0  0
   -2.2458   -1.6317    0.0000 C   0  0  0  0  0  0  0  0  0  0  0  0
   -2.0890   -3.1235    0.0000 O   0  0  0  0  0  0  0  0  0  0  0  0
   -3.6161   -1.0216    0.0000 R   0  0  0  0  0  1  0  0  0  2  0  0
    0.3943   -1.2135    0.0000 N   0  0  0  0  0  0  0  0  0  0  0  0
    0.8578   -2.6401    0.0000 R   0  0  0  0  0  1  0  0  0  1  0  0
  2  1  1  6
  2  3  1  0
  3  4  1  0
  4  5  1  0
  5  6  1  6
  6  7  2  0
  6  8  1  0
  5  9  1  0
  9 10  1  0
  9  2  1  0
M  END
>  <id>  (672) 
d7fda8e2-d095-4afa-96b9-fafb98841a44

>  <Version>  (672) 
0

>  <Alias>  (672) 
Pro(5S-Me)

>  <Type>  (672) 
amino_acid

>  <Smiles>  (672) 
C[C@H]1CC[C@@H](C(=O)[*:2])N1[*:1]

>  <ProtectedSmiles>  (672) 
C[C@H]1CC[C@@H](C(=O)O)N1C(=O)OCC1c2ccccc2-c2ccccc21

>  <CAS>  (672) 
1932784-54-7

>  <User>  (672) 
angelica.l

>  <StereoComment>  (672) 
as drawn

>  <Name>  (672) 
(2S,5S)-1-Fmoc-5-methylpyrrolidine-2-carboxylic acid

>  <Code>  (672) 
Pro(5S-Me)

>  <AliasLowerCase>  (672) 
pro(5s-me)

>  <LatestVersion>  (672) 
0.0

>  <createdAt>  (672) 
2026-01-14T11:36:40.771Z

>  <updatedAt>  (672) 
2026-01-14T11:36:40.771Z

>  <NumRotatableBonds>  (672) 
1

>  <is_N_methyl>  (672) 
False

>  <is_a_methyl>  (672) 
False

>  <is_alpha_aa>  (672) 
True

>  <is_beta_aa>  (672) 
False

>  <is_S100_aa>  (672) 
False

>  <Murcko_SMILES>  (672) 
C1CCNC1

$$$$

     RDKit          2D

 11 11  0  0  0  0  0  0  0  0999 V2000
    3.9786    1.2990    0.0000 O   0  0  0  0  0  0  0  0  0  0  0  0
    3.2286   -0.0000    0.0000 C   0  0  0  0  0  0  0  0  0  0  0  0
    1.7286    0.0000    0.0000 C   0  0  0  0  0  0  0  0  0  0  0  0
    1.0777    1.3515    0.0000 C   0  0  0  0  0  0  0  0  0  0  0  0
   -0.3846    1.6852    0.0000 C   0  0  0  0  0  0  0  0  0  0  0  0
   -1.5574    0.7500    0.0000 C   0  0  0  0  0  0  0  0  0  0  0  0
   -1.5574   -0.7500    0.0000 C   0  0  0  0  0  0  0  0  0  0  0  0
   -0.3846   -1.6852    0.0000 C   0  0  0  0  0  0  0  0  0  0  0  0
    1.0777   -1.3515    0.0000 N   0  0  0  0  0  0  0  0  0  0  0  0
    2.0130   -2.5242    0.0000 R   0  0  0  0  0  1  0  0  0  1  0  0
    3.9786   -1.2990    0.0000 R   0  0  0  0  0  1  0  0  0  2  0  0
  1  2  2  0
  3  2  1  1
  3  4  1  0
  4  5  1  0
  5  6  1  0
  6  7  1  0
  7  8  1  0
  8  9  1  0
  9 10  1  0
  2 11  1  0
  9  3  1  0
M  END
>  <id>  (673) 
2b0d7106-fbe2-41b5-b048-7dd6693bad14

>  <Version>  (673) 
0

>  <Alias>  (673) 
(2S)-Azp

>  <Type>  (673) 
amino_acid

>  <Smiles>  (673) 
O=C([C@@H]1CCCCCN1[*:1])[*:2]

>  <ProtectedSmiles>  (673) 
O=C(O)[C@@H]1CCCCCN1C(=O)OCC1c2ccccc2-c2ccccc21

>  <CAS>  (673) 
2322925-11-9

>  <User>  (673) 
mischa.s

>  <StereoComment>  (673) 
as drawn

>  <Name>  (673) 
(S)-1-(((9H-Fluoren-9-yl)methoxy)carbonyl)azepane-2-carboxylic acid

>  <Code>  (673) 
(2S)-Azp

>  <AliasLowerCase>  (673) 
(2s)-azp

>  <LatestVersion>  (673) 
0.0

>  <createdAt>  (673) 
2026-01-14T11:33:26.726Z

>  <updatedAt>  (673) 
2026-01-14T11:33:26.726Z

>  <NumRotatableBonds>  (673) 
1

>  <is_N_methyl>  (673) 
False

>  <is_a_methyl>  (673) 
False

>  <is_alpha_aa>  (673) 
True

>  <is_beta_aa>  (673) 
False

>  <is_S100_aa>  (673) 
False

>  <Murcko_SMILES>  (673) 
C1CCCNCC1

$$$$

     RDKit          2D

 10 11  0  0  0  0  0  0  0  0999 V2000
    1.2990   -3.3107    0.0000 O   0  0  0  0  0  0  0  0  0  0  0  0
   -0.0000   -2.5607    0.0000 C   0  0  0  0  0  0  0  0  0  0  0  0
   -0.0000   -1.0607    0.0000 C   0  0  0  0  0  0  0  0  0  0  0  0
    1.0607    0.0000    0.0000 C   0  0  0  0  0  0  0  0  0  0  0  0
    0.0000    1.0607    0.0000 C   0  0  0  0  0  0  0  0  0  0  0  0
    0.0000    2.5607    0.0000 N   0  0  0  0  0  0  0  0  0  0  0  0
    1.2990    3.3107    0.0000 R   0  0  0  0  0  1  0  0  0  1  0  0
   -1.0607    0.0000    0.0000 C   0  0  0  0  0  0  0  0  0  0  0  0
   -0.3607    0.0000    0.0000 C   0  0  0  0  0  0  0  0  0  0  0  0
   -1.2990   -3.3107    0.0000 R   0  0  0  0  0  1  0  0  0  2  0  0
  1  2  2  0
  2  3  1  0
  3  4  1  0
  4  5  1  0
  5  6  1  0
  6  7  1  0
  5  8  1  0
  5  9  1  0
  2 10  1  0
  8  3  1  0
  9  3  1  0
M  END
>  <id>  (674) 
25619838-1b96-4e50-8eaf-f98ae2c51551

>  <Version>  (674) 
0

>  <Alias>  (674) 
biCyc-1,1,1-Pent

>  <Type>  (674) 
amino_acid

>  <Smiles>  (674) 
O=C(C12CC(N[*:1])(C1)C2)[*:2]

>  <ProtectedSmiles>  (674) 
O=C(NC12CC(C(=O)O)(C1)C2)OCC1c2ccccc2-c2ccccc21

>  <CAS>  (674) 
676371-66-7

>  <User>  (674) 
emile.b

>  <StereoComment>  (674) 
as drawn

>  <Name>  (674) 
3-(9H-fluoren-9-ylmethoxycarbonylamino)bicyclo[1.1.1]pentane-1-carboxylic acid

>  <Code>  (674) 
biCyc-1,1,1-Pent

>  <AliasLowerCase>  (674) 
bicyc-1,1,1-pent

>  <LatestVersion>  (674) 
0.0

>  <createdAt>  (674) 
2026-01-14T11:33:38.341Z

>  <updatedAt>  (674) 
2026-01-14T11:33:38.341Z

>  <NumRotatableBonds>  (674) 
2

>  <is_N_methyl>  (674) 
False

>  <is_a_methyl>  (674) 
False

>  <is_alpha_aa>  (674) 
False

>  <is_beta_aa>  (674) 
False

>  <is_S100_aa>  (674) 
False

>  <Murcko_SMILES>  (674) 
C1C2CC1C2

$$$$

     RDKit          2D

 13 13  0  0  0  0  0  0  0  0999 V2000
    3.0000   -2.5981    0.0000 O   0  0  0  0  0  0  0  0  0  0  0  0
    3.7500   -1.2990    0.0000 C   0  0  0  0  0  0  0  0  0  0  0  0
    3.0000    0.0000    0.0000 C   0  0  0  0  0  0  0  0  0  0  0  0
    3.7500    1.2990    0.0000 N   0  0  0  0  0  0  0  0  0  0  0  0
    5.2500    1.2990    0.0000 R   0  0  0  0  0  1  0  0  0  1  0  0
    1.5000    0.0000    0.0000 C   0  0  0  0  0  0  0  0  0  0  0  0
    0.7500   -1.2990    0.0000 C   0  0  0  0  0  0  0  0  0  0  0  0
   -0.7500   -1.2990    0.0000 C   0  0  0  0  0  0  0  0  0  0  0  0
   -1.5000    0.0000    0.0000 C   0  0  0  0  0  0  0  0  0  0  0  0
   -3.0000    0.0000    0.0000 F   0  0  0  0  0  0  0  0  0  0  0  0
   -0.7500    1.2990    0.0000 C   0  0  0  0  0  0  0  0  0  0  0  0
    0.7500    1.2990    0.0000 C   0  0  0  0  0  0  0  0  0  0  0  0
    5.2500   -1.2990    0.0000 R   0  0  0  0  0  1  0  0  0  2  0  0
  1  2  2  0
  2  3  1  0
  3  4  1  6
  4  5  1  0
  3  6  1  0
  6  7  2  0
  7  8  1  0
  8  9  2  0
  9 10  1  0
  9 11  1  0
 11 12  2  0
  2 13  1  0
 12  6  1  0
M  END
>  <id>  (675) 
47326144-7062-4218-a0af-90f3832d7c3b

>  <Version>  (675) 
0

>  <Alias>  (675) 
4FPhg

>  <Type>  (675) 
amino_acid

>  <Smiles>  (675) 
O=C([C@@H](N[*:1])c1ccc(F)cc1)[*:2]

>  <ProtectedSmiles>  (675) 
O=C(N[C@H](C(=O)O)c1ccc(F)cc1)OCC1c2ccccc2-c2ccccc21

>  <CAS>  (675) 
678988-18-6

>  <User>  (675) 
Sevan.habeshian@orbismedicines.com

>  <StereoComment>  (675) 
as drawn

>  <Name>  (675) 
N/A

>  <Code>  (675) 
4FPhg

>  <AliasLowerCase>  (675) 
4fphg

>  <LatestVersion>  (675) 
0.0

>  <createdAt>  (675) 
2026-02-13T09:56:35.586Z

>  <updatedAt>  (675) 
2026-02-13T09:56:35.586Z

>  <NumRotatableBonds>  (675) 
3

>  <is_N_methyl>  (675) 
False

>  <is_a_methyl>  (675) 
False

>  <is_alpha_aa>  (675) 
True

>  <is_beta_aa>  (675) 
False

>  <is_S100_aa>  (675) 
False

>  <Murcko_SMILES>  (675) 
c1ccccc1

$$$$

     RDKit          2D

 15 15  0  0  0  0  0  0  0  0999 V2000
    3.7500   -1.2990    0.0000 C   0  0  0  0  0  0  0  0  0  0  0  0
    3.0000    0.0000    0.0000 O   0  0  0  0  0  0  0  0  0  0  0  0
    1.5000    0.0000    0.0000 C   0  0  0  0  0  0  0  0  0  0  0  0
    0.7500   -1.2990    0.0000 C   0  0  0  0  0  0  0  0  0  0  0  0
   -0.7500   -1.2990    0.0000 C   0  0  0  0  0  0  0  0  0  0  0  0
   -1.5000    0.0000    0.0000 C   0  0  0  0  0  0  0  0  0  0  0  0
   -3.0000    0.0000    0.0000 C   0  0  0  0  0  0  0  0  0  0  0  0
   -3.7500    1.2990    0.0000 C   0  0  0  0  0  0  0  0  0  0  0  0
   -3.0000    2.5981    0.0000 N   0  0  0  0  0  0  0  0  0  0  0  0
   -3.7500    3.8971    0.0000 R   0  0  0  0  0  1  0  0  0  1  0  0
   -5.2500    1.2990    0.0000 C   0  0  0  0  0  0  0  0  0  0  0  0
   -6.0000   -0.0000    0.0000 O   0  0  0  0  0  0  0  0  0  0  0  0
   -6.0000    2.5981    0.0000 R   0  0  0  0  0  1  0  0  0  2  0  0
   -0.7500    1.2990    0.0000 C   0  0  0  0  0  0  0  0  0  0  0  0
    0.7500    1.2990    0.0000 C   0  0  0  0  0  0  0  0  0  0  0  0
  1  2  1  0
  2  3  1  0
  3  4  2  0
  4  5  1  0
  5  6  2  0
  6  7  1  0
  8  7  1  1
  8  9  1  0
  9 10  1  0
  8 11  1  0
 11 12  2  0
 11 13  1  0
  6 14  1  0
 14 15  2  0
 15  3  1  0
M  END
>  <id>  (676) 
5f1af56e-60c7-4dd8-8b3d-04d85685c73a

>  <Version>  (676) 
0

>  <Alias>  (676) 
TyrOMe

>  <Type>  (676) 
amino_acid

>  <Smiles>  (676) 
COc1ccc(C[C@H](N[*:1])C(=O)[*:2])cc1

>  <ProtectedSmiles>  (676) 
COc1ccc(C[C@H](NC(=O)OCC2c3ccccc3-c3ccccc32)C(=O)O)cc1

>  <CAS>  (676) 
77128-72-4

>  <User>  (676) 
sevan.h

>  <StereoComment>  (676) 
as drawn

>  <Name>  (676) 
Fmoc-Tyr(OMe)-OH

>  <Code>  (676) 
TyrOMe

>  <AliasLowerCase>  (676) 
tyrome

>  <LatestVersion>  (676) 
0.0

>  <createdAt>  (676) 
2026-01-14T12:15:56.665Z

>  <updatedAt>  (676) 
2026-01-14T12:15:56.665Z

>  <NumRotatableBonds>  (676) 
5

>  <is_N_methyl>  (676) 
False

>  <is_a_methyl>  (676) 
False

>  <is_alpha_aa>  (676) 
True

>  <is_beta_aa>  (676) 
False

>  <is_S100_aa>  (676) 
False

>  <Murcko_SMILES>  (676) 
c1ccccc1

$$$$

     RDKit          2D

 12 12  0  0  0  0  0  0  0  0999 V2000
    4.3191   -1.0261    0.0000 O   0  0  0  0  0  0  0  0  0  0  0  0
    4.0586    0.4512    0.0000 C   0  0  0  0  0  0  0  0  0  0  0  0
    2.6491    0.9642    0.0000 C   0  0  0  0  0  0  0  0  0  0  0  0
    1.5000    0.0000    0.0000 C   0  0  0  0  0  0  0  0  0  0  0  0
    2.6491   -0.9642    0.0000 O   0  0  0  0  0  0  0  0  0  0  0  0
    0.7500   -1.2990    0.0000 C   0  0  0  0  0  0  0  0  0  0  0  0
   -0.7500   -1.2990    0.0000 C   0  0  0  0  0  0  0  0  0  0  0  0
   -1.5000    0.0000    0.0000 C   0  0  0  0  0  0  0  0  0  0  0  0
   -0.7500    1.2990    0.0000 N   0  0  0  0  0  0  0  0  0  0  0  0
   -1.5000    2.5981    0.0000 R   0  0  0  0  0  1  0  0  0  1  0  0
    0.7500    1.2990    0.0000 C   0  0  0  0  0  0  0  0  0  0  0  0
    5.2077    1.4153    0.0000 R   0  0  0  0  0  1  0  0  0  2  0  0
  1  2  2  0
  2  3  1  0
  3  4  1  0
  4  5  1  0
  4  6  1  0
  6  7  1  0
  7  8  1  0
  8  9  1  0
  9 10  1  0
  9 11  1  0
  2 12  1  0
 11  4  1  0
M  END
>  <id>  (677) 
ce855d28-028c-4c22-9922-6d55f437d8ea

>  <Version>  (677) 
0

>  <Alias>  (677) 
3OH-PipAcA

>  <Type>  (677) 
amino_acid

>  <Smiles>  (677) 
O=C(CC1(O)CCCN([*:1])C1)[*:2]

>  <ProtectedSmiles>  (677) 
O=C(O)CC1(O)CCCN(C(=O)OCC2c3ccccc3-c3ccccc32)C1

>  <CAS>  (677) 
2138390-21-1

>  <User>  (677) 
Sevan.habeshian@orbismedicines.com

>  <StereoComment>  (677) 
as drawn

>  <Name>  (677) 
N/A

>  <Code>  (677) 
3OH-PipAcA

>  <AliasLowerCase>  (677) 
3oh-pipaca

>  <LatestVersion>  (677) 
0.0

>  <createdAt>  (677) 
2026-02-13T09:56:36.387Z

>  <updatedAt>  (677) 
2026-02-13T09:56:36.387Z

>  <NumRotatableBonds>  (677) 
2

>  <is_N_methyl>  (677) 
False

>  <is_a_methyl>  (677) 
False

>  <is_alpha_aa>  (677) 
False

>  <is_beta_aa>  (677) 
False

>  <is_S100_aa>  (677) 
False

>  <Murcko_SMILES>  (677) 
C1CCNCC1

$$$$

     RDKit          2D

 17 18  0  0  0  0  0  0  0  0999 V2000
   -2.6401   -3.1891    0.0000 C   0  0  0  0  0  0  0  0  0  0  0  0
   -1.2135   -2.7256    0.0000 N   0  0  0  0  0  0  0  0  0  0  0  0
   -0.0000   -3.6073    0.0000 C   0  0  0  0  0  0  0  0  0  0  0  0
    1.2135   -2.7256    0.0000 C   0  0  0  0  0  0  0  0  0  0  0  0
    2.6401   -3.1891    0.0000 C   0  0  0  0  0  0  0  0  0  0  0  0
    2.9520   -4.6564    0.0000 C   0  0  0  0  0  0  0  0  0  0  0  0
    1.8373   -5.6601    0.0000 N   0  0  0  0  0  0  0  0  0  0  0  0
    2.1491   -7.1273    0.0000 R   0  0  0  0  0  1  0  0  0  1  0  0
    4.3786   -5.1199    0.0000 C   0  0  0  0  0  0  0  0  0  0  0  0
    5.4933   -4.1162    0.0000 O   0  0  0  0  0  0  0  0  0  0  0  0
    4.6904   -6.5871    0.0000 R   0  0  0  0  0  1  0  0  0  2  0  0
    0.7500   -1.2990    0.0000 C   0  0  0  0  0  0  0  0  0  0  0  0
    1.5000    0.0000    0.0000 C   0  0  0  0  0  0  0  0  0  0  0  0
    0.7500    1.2990    0.0000 C   0  0  0  0  0  0  0  0  0  0  0  0
   -0.7500    1.2990    0.0000 C   0  0  0  0  0  0  0  0  0  0  0  0
   -1.5000    0.0000    0.0000 C   0  0  0  0  0  0  0  0  0  0  0  0
   -0.7500   -1.2990    0.0000 C   0  0  0  0  0  0  0  0  0  0  0  0
  1  2  1  0
  2  3  1  0
  3  4  2  0
  4  5  1  0
  6  5  1  6
  6  7  1  0
  7  8  1  0
  6  9  1  0
  9 10  2  0
  9 11  1  0
  4 12  1  0
 12 13  2  0
 13 14  1  0
 14 15  2  0
 15 16  1  0
 16 17  2  0
 17  2  1  0
 17 12  1  0
M  END
>  <id>  (678) 
98cdeddb-1d14-48b1-8ede-66b3b1a45bc0

>  <Version>  (678) 
0

>  <Alias>  (678) 
D-Trp(Me)

>  <Type>  (678) 
amino_acid

>  <Smiles>  (678) 
Cn1cc(C[C@@H](N[*:1])C(=O)[*:2])c2ccccc21

>  <ProtectedSmiles>  (678) 
Cn1cc(C[C@@H](NC(=O)OCC2c3ccccc3-c3ccccc32)C(=O)O)c2ccccc21

>  <CAS>  (678) 
168471-22-5

>  <User>  (678) 
gontran.s

>  <StereoComment>  (678) 
as drawn

>  <Name>  (678) 
(R)-2-((((9H-Fluoren-9-yl)methoxy)carbonyl)amino)-3-(1-methyl-1H-indol-3-yl)propanoic acid

>  <Code>  (678) 
D-Trp(Me)

>  <AliasLowerCase>  (678) 
d-trp(me)

>  <LatestVersion>  (678) 
0.0

>  <createdAt>  (678) 
2026-01-14T11:37:19.069Z

>  <updatedAt>  (678) 
2026-01-14T11:37:19.069Z

>  <NumRotatableBonds>  (678) 
4

>  <is_N_methyl>  (678) 
False

>  <is_a_methyl>  (678) 
False

>  <is_alpha_aa>  (678) 
True

>  <is_beta_aa>  (678) 
False

>  <is_S100_aa>  (678) 
False

>  <Murcko_SMILES>  (678) 
c1ccc2[nH]ccc2c1

$$$$

     RDKit          2D

 17 18  0  0  0  0  0  0  0  0999 V2000
    2.1328    3.1443    0.0000 O   0  0  0  0  0  0  0  0  0  0  0  0
    2.4446    4.6115    0.0000 C   0  0  0  0  0  0  0  0  0  0  0  0
    1.3299    5.6152    0.0000 C   0  0  0  0  0  0  0  0  0  0  0  0
    1.6418    7.0824    0.0000 C   0  0  0  0  0  0  0  0  0  0  0  0
    3.0684    7.5459    0.0000 N   0  0  0  0  0  0  0  0  0  0  0  0
    3.3802    9.0132    0.0000 R   0  0  0  0  0  1  0  0  0  1  0  0
   -0.0967    5.1517    0.0000 C   0  0  0  0  0  0  0  0  0  0  0  0
   -0.4086    3.6844    0.0000 C   0  0  0  0  0  0  0  0  0  0  0  0
   -1.8351    3.2209    0.0000 C   0  0  0  0  0  0  0  0  0  0  0  0
   -2.1470    1.7537    0.0000 C   0  0  0  0  0  0  0  0  0  0  0  0
   -1.0323    0.7500    0.0000 C   0  0  0  0  0  0  0  0  0  0  0  0
    0.3943    1.2135    0.0000 C   0  0  0  0  0  0  0  0  0  0  0  0
    0.7062    2.6807    0.0000 C   0  0  0  0  0  0  0  0  0  0  0  0
    1.2760    0.0000    0.0000 O   0  0  0  0  0  0  0  0  0  0  0  0
    0.3943   -1.2135    0.0000 C   0  0  0  0  0  0  0  0  0  0  0  0
   -1.0323   -0.7500    0.0000 O   0  0  0  0  0  0  0  0  0  0  0  0
    3.8712    5.0750    0.0000 R   0  0  0  0  0  1  0  0  0  2  0  0
  1  2  2  0
  2  3  1  0
  3  4  1  0
  4  5  1  0
  5  6  1  0
  3  7  1  0
  7  8  1  0
  8  9  2  0
  9 10  1  0
 10 11  2  0
 11 12  1  0
 12 13  2  0
 12 14  1  0
 14 15  1  0
 15 16  1  0
  2 17  1  0
 13  8  1  0
 16 11  1  0
M  END
>  <id>  (679) 
b06e9f2c-88f2-477a-a7a9-ea5c944e8f59

>  <Version>  (679) 
0

>  <Alias>  (679) 
rac(2Me-5-Bdo)PA

>  <Type>  (679) 
amino_acid

>  <Smiles>  (679) 
O=C(C(CN[*:1])Cc1ccc2c(c1)OCO2)[*:2]

>  <ProtectedSmiles>  (679) 
O=C(NCC(Cc1ccc2c(c1)OCO2)C(=O)O)OCC1c2ccccc2-c2ccccc21

>  <CAS>  (679) 
683217-91-6

>  <User>  (679) 
mischa.s

>  <StereoComment>  (679) 
as drawn

>  <Name>  (679) 
2-[(1,3-dioxaindan-5-yl)methyl]-3-({[(9H-fluoren-9-yl)methoxy]carbonyl}amino)propanoic acid

>  <Code>  (679) 
rac(2Me-5-Bdo)PA

>  <AliasLowerCase>  (679) 
rac(2me-5-bdo)pa

>  <LatestVersion>  (679) 
0.0

>  <createdAt>  (679) 
2026-01-14T11:35:47.997Z

>  <updatedAt>  (679) 
2026-01-14T11:35:47.997Z

>  <NumRotatableBonds>  (679) 
5

>  <is_N_methyl>  (679) 
False

>  <is_a_methyl>  (679) 
False

>  <is_alpha_aa>  (679) 
False

>  <is_beta_aa>  (679) 
True

>  <is_S100_aa>  (679) 
False

>  <Murcko_SMILES>  (679) 
c1ccc2c(c1)OCO2

$$$$

     RDKit          2D

  8  7  0  0  0  0  0  0  0  0999 V2000
    5.1962   -1.5000    0.0000 O   0  0  0  0  0  0  0  0  0  0  0  0
    5.1962   -0.0000    0.0000 C   0  0  0  0  0  0  0  0  0  0  0  0
    3.8971    0.7500    0.0000 C   0  0  0  0  0  0  0  0  0  0  0  0
    3.8971    2.2500    0.0000 O   0  0  0  0  0  0  0  0  0  0  0  0
    2.5981   -0.0000    0.0000 C   0  0  0  0  0  0  0  0  0  0  0  0
    1.2990    0.7500    0.0000 N   0  0  0  0  0  0  0  0  0  0  0  0
    0.0000    0.0000    0.0000 R   0  0  0  0  0  1  0  0  0  1  0  0
    6.4952    0.7500    0.0000 R   0  0  0  0  0  1  0  0  0  2  0  0
  1  2  2  0
  2  3  1  0
  3  4  1  6
  3  5  1  0
  5  6  1  0
  6  7  1  0
  2  8  1  0
M  END
>  <id>  (680) 
ff3fa5e5-b108-4fc1-a8c6-71e80af5fb99

>  <Version>  (680) 
0

>  <Alias>  (680) 
(S2-OH)-B-Ala

>  <Type>  (680) 
amino_acid

>  <Smiles>  (680) 
O=C([C@@H](O)CN[*:1])[*:2]

>  <ProtectedSmiles>  (680) 
O=C(NC[C@H](O)C(=O)O)OCC1c2ccccc2-c2ccccc21

>  <CAS>  (680) 
172721-23-2

>  <User>  (680) 
Sevan.habeshian@orbismedicines.com

>  <StereoComment>  (680) 
as drawn

>  <Name>  (680) 
N/A

>  <Code>  (680) 
(S2-OH)-B-Ala

>  <AliasLowerCase>  (680) 
(s2-oh)-b-ala

>  <LatestVersion>  (680) 
0.0

>  <createdAt>  (680) 
2026-02-13T09:56:35.499Z

>  <updatedAt>  (680) 
2026-02-13T09:56:35.499Z

>  <NumRotatableBonds>  (680) 
3

>  <is_N_methyl>  (680) 
False

>  <is_a_methyl>  (680) 
False

>  <is_alpha_aa>  (680) 
False

>  <is_beta_aa>  (680) 
True

>  <is_S100_aa>  (680) 
False

>  <Murcko_SMILES>  (680) 


$$$$

     RDKit          2D

 16 17  0  0  0  0  0  0  0  0999 V2000
    4.2406   -3.8183    0.0000 O   0  0  0  0  0  0  0  0  0  0  0  0
    4.0838   -2.3265    0.0000 C   0  0  0  0  0  0  0  0  0  0  0  0
    2.7135   -1.7164    0.0000 C   0  0  0  0  0  0  0  0  0  0  0  0
    1.5000   -2.5981    0.0000 C   0  0  0  0  0  0  0  0  0  0  0  0
    0.7500   -1.2990    0.0000 C   0  0  0  0  0  0  0  0  0  0  0  0
    1.5000    0.0000    0.0000 C   0  0  0  0  0  0  0  0  0  0  0  0
    0.7500    1.2990    0.0000 C   0  0  0  0  0  0  0  0  0  0  0  0
   -0.7500    1.2990    0.0000 C   0  0  0  0  0  0  0  0  0  0  0  0
   -1.5000    0.0000    0.0000 C   0  0  0  0  0  0  0  0  0  0  0  0
   -0.7500   -1.2990    0.0000 C   0  0  0  0  0  0  0  0  0  0  0  0
    2.5037   -3.7128    0.0000 C   0  0  0  0  0  0  0  0  0  0  0  0
    1.7537   -5.0118    0.0000 C   0  0  0  0  0  0  0  0  0  0  0  0
    0.2865   -4.7000    0.0000 N   0  0  0  0  0  0  0  0  0  0  0  0
   -0.8282   -5.7037    0.0000 R   0  0  0  0  0  1  0  0  0  1  0  0
    0.1297   -3.2082    0.0000 C   0  0  0  0  0  0  0  0  0  0  0  0
    5.2974   -1.4448    0.0000 R   0  0  0  0  0  1  0  0  0  2  0  0
  1  2  2  0
  2  3  1  0
  3  4  1  0
  4  5  1  0
  5  6  2  0
  6  7  1  0
  7  8  2  0
  8  9  1  0
  9 10  2  0
  4 11  1  0
 11 12  1  0
 12 13  1  0
 13 14  1  0
 13 15  1  0
  2 16  1  0
 15  4  1  0
 10  5  1  0
M  END
>  <id>  (681) 
91ab2836-b8a3-4f74-a1f7-d2a098f653ab

>  <Version>  (681) 
0

>  <Alias>  (681) 
3Ppaa

>  <Type>  (681) 
amino_acid

>  <Smiles>  (681) 
O=C(CC1(c2ccccc2)CCN([*:1])C1)[*:2]

>  <ProtectedSmiles>  (681) 
CC(C)(C)OC(=O)N1CCC(CC(=O)O)(c2ccccc2)C1

>  <CAS>  (681) 
952183-51-6

>  <User>  (681) 
mischa.s

>  <StereoComment>  (681) 
as drawn

>  <Name>  (681) 
1-[(1,1-Dimethylethoxy)carbonyl]-3-phenyl-3-pyrrolidineacetic acid

>  <Code>  (681) 
3Ppaa

>  <AliasLowerCase>  (681) 
3ppaa

>  <LatestVersion>  (681) 
0.0

>  <createdAt>  (681) 
2026-01-14T11:32:16.913Z

>  <updatedAt>  (681) 
2026-01-14T11:32:16.913Z

>  <NumRotatableBonds>  (681) 
3

>  <is_N_methyl>  (681) 
False

>  <is_a_methyl>  (681) 
False

>  <is_alpha_aa>  (681) 
False

>  <is_beta_aa>  (681) 
False

>  <is_S100_aa>  (681) 
False

>  <Murcko_SMILES>  (681) 
c1ccc(C2CCNC2)cc1

$$$$

     RDKit          2D

 18 19  0  0  0  0  0  0  0  0999 V2000
   -4.0667   -3.6527    0.0000 N   0  0  0  0  0  0  0  0  0  0  0  0
   -2.6401   -3.1891    0.0000 C   0  0  0  0  0  0  0  0  0  0  0  0
   -1.2135   -2.7256    0.0000 C   0  0  0  0  0  0  0  0  0  0  0  0
   -0.0000   -3.6073    0.0000 C   0  0  0  0  0  0  0  0  0  0  0  0
    1.2135   -2.7256    0.0000 N   0  0  0  0  0  0  0  0  0  0  0  0
    0.7500   -1.2990    0.0000 C   0  0  0  0  0  0  0  0  0  0  0  0
    1.5000    0.0000    0.0000 C   0  0  0  0  0  0  0  0  0  0  0  0
    0.7500    1.2990    0.0000 C   0  0  0  0  0  0  0  0  0  0  0  0
   -0.7500    1.2990    0.0000 C   0  0  0  0  0  0  0  0  0  0  0  0
   -1.5000    2.5981    0.0000 C   0  0  0  0  0  0  0  0  0  0  0  0
   -0.7500    3.8971    0.0000 C   0  0  0  0  0  0  0  0  0  0  0  0
    0.7500    3.8971    0.0000 N   0  0  0  0  0  0  0  0  0  0  0  0
    1.5000    5.1962    0.0000 R   0  0  0  0  0  1  0  0  0  1  0  0
   -1.5000    5.1962    0.0000 C   0  0  0  0  0  0  0  0  0  0  0  0
   -3.0000    5.1962    0.0000 O   0  0  0  0  0  0  0  0  0  0  0  0
   -0.7500    6.4952    0.0000 R   0  0  0  0  0  1  0  0  0  2  0  0
   -1.5000    0.0000    0.0000 C   0  0  0  0  0  0  0  0  0  0  0  0
   -0.7500   -1.2990    0.0000 C   0  0  0  0  0  0  0  0  0  0  0  0
  1  2  3  0
  2  3  1  0
  3  4  2  0
  4  5  1  0
  5  6  1  0
  6  7  2  0
  7  8  1  0
  8  9  2  0
  9 10  1  0
 10 11  1  0
 11 12  1  0
 12 13  1  0
 11 14  1  0
 14 15  2  0
 14 16  1  0
  9 17  1  0
 17 18  2  0
 18  3  1  0
 18  6  1  0
M  END
>  <id>  (682) 
01b4340a-29b7-4b3f-a864-69309d6a27b8

>  <Version>  (682) 
0

>  <Alias>  (682) 
3Cy1IndAla

>  <Type>  (682) 
amino_acid

>  <Smiles>  (682) 
N#Cc1c[nH]c2ccc(CC(N[*:1])C(=O)[*:2])cc12

>  <ProtectedSmiles>  (682) 
N#Cc1c[nH]c2ccc(CC(NC(=O)OCC3c4ccccc4-c4ccccc43)C(=O)O)cc12

>  <CAS>  (682) 


>  <User>  (682) 
mischa.s

>  <StereoComment>  (682) 
as drawn

>  <Name>  (682) 
rac Fmoc-5-(3-cyano-1H-indole)-Ala-OH

>  <Code>  (682) 
3Cy1IndAla

>  <AliasLowerCase>  (682) 
3cy1indala

>  <LatestVersion>  (682) 
0.0

>  <createdAt>  (682) 
2026-01-14T11:36:46.186Z

>  <updatedAt>  (682) 
2026-01-14T11:36:46.186Z

>  <NumRotatableBonds>  (682) 
4

>  <is_N_methyl>  (682) 
False

>  <is_a_methyl>  (682) 
False

>  <is_alpha_aa>  (682) 
True

>  <is_beta_aa>  (682) 
False

>  <is_S100_aa>  (682) 
False

>  <Murcko_SMILES>  (682) 
c1ccc2[nH]ccc2c1

$$$$

     RDKit          2D

 17 18  0  0  0  0  0  0  0  0999 V2000
   -3.0000   -7.7942    0.0000 O   0  0  0  0  0  0  0  0  0  0  0  0
   -3.7500   -6.4952    0.0000 C   0  0  0  0  0  0  0  0  0  0  0  0
   -3.0000   -5.1962    0.0000 C   0  0  0  0  0  0  0  0  0  0  0  0
   -1.5000   -5.1962    0.0000 C   0  0  0  0  0  0  0  0  0  0  0  0
   -0.7500   -3.8971    0.0000 C   0  0  0  0  0  0  0  0  0  0  0  0
    0.7500   -3.8971    0.0000 C   0  0  0  0  0  0  0  0  0  0  0  0
    1.5000   -2.5981    0.0000 C   0  0  0  0  0  0  0  0  0  0  0  0
    0.7500   -1.2990    0.0000 C   0  0  0  0  0  0  0  0  0  0  0  0
    1.5000    0.0000    0.0000 C   0  0  0  0  0  0  0  0  0  0  0  0
    0.7500    1.2990    0.0000 C   0  0  0  0  0  0  0  0  0  0  0  0
   -0.7500    1.2990    0.0000 C   0  0  0  0  0  0  0  0  0  0  0  0
   -1.5000    0.0000    0.0000 C   0  0  0  0  0  0  0  0  0  0  0  0
   -0.7500   -1.2990    0.0000 C   0  0  0  0  0  0  0  0  0  0  0  0
   -1.5000   -2.5981    0.0000 C   0  0  0  0  0  0  0  0  0  0  0  0
   -3.7500   -3.8971    0.0000 N   0  0  0  0  0  0  0  0  0  0  0  0
   -5.2500   -3.8971    0.0000 R   0  0  0  0  0  1  0  0  0  1  0  0
   -5.2500   -6.4952    0.0000 R   0  0  0  0  0  1  0  0  0  2  0  0
  1  2  2  0
  2  3  1  0
  3  4  1  1
  4  5  1  0
  5  6  2  0
  6  7  1  0
  7  8  2  0
  8  9  1  0
  9 10  2  0
 10 11  1  0
 11 12  2  0
 12 13  1  0
 13 14  2  0
  3 15  1  0
 15 16  1  0
  2 17  1  0
 14  5  1  0
 13  8  1  0
M  END
>  <id>  (683) 
d61bd03d-d918-4d26-a324-f18cfe4aac21

>  <Version>  (683) 
0

>  <Alias>  (683) 
2Nal

>  <Type>  (683) 
amino_acid

>  <Smiles>  (683) 
O=C([C@H](Cc1ccc2ccccc2c1)N[*:1])[*:2]

>  <ProtectedSmiles>  (683) 
O=C(N[C@@H](Cc1ccc2ccccc2c1)C(=O)O)OCC1c2ccccc2-c2ccccc21

>  <CAS>  (683) 
112883-43-9

>  <User>  (683) 
sevan.h

>  <StereoComment>  (683) 
as drawn

>  <Name>  (683) 
Fmoc-2-Nal-OH

>  <Code>  (683) 
2Nal

>  <AliasLowerCase>  (683) 
2nal

>  <LatestVersion>  (683) 
0.0

>  <createdAt>  (683) 
2026-01-14T12:17:01.698Z

>  <updatedAt>  (683) 
2026-01-14T12:17:01.698Z

>  <NumRotatableBonds>  (683) 
4

>  <is_N_methyl>  (683) 
False

>  <is_a_methyl>  (683) 
False

>  <is_alpha_aa>  (683) 
True

>  <is_beta_aa>  (683) 
False

>  <is_S100_aa>  (683) 
False

>  <Murcko_SMILES>  (683) 
c1ccc2ccccc2c1

$$$$

     RDKit          2D

 13 13  0  0  0  0  0  0  0  0999 V2000
    6.0000    0.0000    0.0000 O   0  0  0  0  0  0  0  0  0  0  0  0
    5.2500   -1.2990    0.0000 C   0  0  0  0  0  0  0  0  0  0  0  0
    3.7500   -1.2990    0.0000 C   0  0  0  0  0  0  0  0  0  0  0  0
    3.0000    0.0000    0.0000 C   0  0  0  0  0  0  0  0  0  0  0  0
    1.5000    0.0000    0.0000 C   0  0  0  0  0  0  0  0  0  0  0  0
    0.7500   -1.2990    0.0000 N   0  0  0  0  0  0  0  0  0  0  0  0
   -0.7500   -1.2990    0.0000 C   0  0  0  0  0  0  0  0  0  0  0  0
   -1.5000    0.0000    0.0000 C   0  0  0  0  0  0  0  0  0  0  0  0
   -0.7500    1.2990    0.0000 C   0  0  0  0  0  0  0  0  0  0  0  0
    0.7500    1.2990    0.0000 N   0  0  0  0  0  0  0  0  0  0  0  0
    3.0000   -2.5981    0.0000 N   0  0  0  0  0  0  0  0  0  0  0  0
    3.7500   -3.8971    0.0000 R   0  0  0  0  0  1  0  0  0  1  0  0
    6.0000   -2.5981    0.0000 R   0  0  0  0  0  1  0  0  0  2  0  0
  1  2  2  0
  2  3  1  0
  3  4  1  0
  4  5  1  0
  5  6  2  0
  6  7  1  0
  7  8  2  0
  8  9  1  0
  9 10  2  0
  3 11  1  0
 11 12  1  0
  2 13  1  0
 10  5  1  0
M  END
>  <id>  (684) 
936acb10-ff2a-4634-91ec-3a38628269b1

>  <Version>  (684) 
0

>  <Alias>  (684) 
rac-2PyrimAla

>  <Type>  (684) 
amino_acid

>  <Smiles>  (684) 
O=C(C(Cc1ncccn1)N[*:1])[*:2]

>  <ProtectedSmiles>  (684) 
O=C(NC(Cc1ncccn1)C(=O)O)OCC1c2ccccc2-c2ccccc21

>  <CAS>  (684) 
1690821-45-4

>  <User>  (684) 
Sevan.habeshian@orbismedicines.com

>  <StereoComment>  (684) 
as drawn

>  <Name>  (684) 
N/A

>  <Code>  (684) 
rac-2PyrimAla

>  <AliasLowerCase>  (684) 
rac-2pyrimala

>  <LatestVersion>  (684) 
0.0

>  <createdAt>  (684) 
2026-02-13T09:56:35.397Z

>  <updatedAt>  (684) 
2026-02-13T09:56:35.397Z

>  <NumRotatableBonds>  (684) 
4

>  <is_N_methyl>  (684) 
False

>  <is_a_methyl>  (684) 
False

>  <is_alpha_aa>  (684) 
True

>  <is_beta_aa>  (684) 
False

>  <is_S100_aa>  (684) 
False

>  <Murcko_SMILES>  (684) 
c1cncnc1

$$$$

     RDKit          2D

 11 10  0  0  0  0  0  0  0  0999 V2000
    9.0933    0.7500    0.0000 N   0  0  0  0  0  0  0  0  0  0  0  0
    7.7942   -0.0000    0.0000 C   0  0  0  0  0  0  0  0  0  0  0  0
    6.4952    0.7500    0.0000 C   0  0  0  0  0  0  0  0  0  0  0  0
    5.1962   -0.0000    0.0000 C   0  0  0  0  0  0  0  0  0  0  0  0
    3.8971    0.7500    0.0000 C   0  0  0  0  0  0  0  0  0  0  0  0
    2.5981   -0.0000    0.0000 C   0  0  0  0  0  0  0  0  0  0  0  0
    1.2990    0.7500    0.0000 N   0  0  0  0  0  0  0  0  0  0  0  0
    0.0000    0.0000    0.0000 R   0  0  0  0  0  1  0  0  0  1  0  0
    2.5981   -1.5000    0.0000 C   0  0  0  0  0  0  0  0  0  0  0  0
    1.2990   -2.2500    0.0000 O   0  0  0  0  0  0  0  0  0  0  0  0
    3.8971   -2.2500    0.0000 R   0  0  0  0  0  1  0  0  0  2  0  0
  1  2  1  0
  2  3  1  0
  3  4  1  0
  4  5  1  0
  6  5  1  1
  6  7  1  0
  7  8  1  0
  6  9  1  0
  9 10  2  0
  9 11  1  0
M  END
>  <id>  (685) 
6983ddab-5bfb-49d1-9d06-08f31bd5e49f

>  <Version>  (685) 
0

>  <Alias>  (685) 
Lys

>  <Type>  (685) 
amino_acid

>  <Smiles>  (685) 
NCCCC[C@H](N[*:1])C(=O)[*:2]

>  <ProtectedSmiles>  (685) 
CC(C)(C)OC(=O)NCCCC[C@H](NC(=O)OCC1c2ccccc2-c2ccccc21)C(=O)O

>  <CAS>  (685) 
71989-26-9

>  <User>  (685) 
sevan.h

>  <StereoComment>  (685) 
as drawn

>  <Name>  (685) 
 Fmoc-Lys(Boc)-OH

>  <Code>  (685) 
Lys

>  <AliasLowerCase>  (685) 
lys

>  <LatestVersion>  (685) 
0.0

>  <createdAt>  (685) 
2026-01-14T11:38:23.098Z

>  <updatedAt>  (685) 
2026-01-14T11:38:23.098Z

>  <NumRotatableBonds>  (685) 
6

>  <is_N_methyl>  (685) 
False

>  <is_a_methyl>  (685) 
False

>  <is_alpha_aa>  (685) 
True

>  <is_beta_aa>  (685) 
False

>  <is_S100_aa>  (685) 
False

>  <Murcko_SMILES>  (685) 


$$$$

     RDKit          2D

 16 16  0  0  0  0  0  0  0  0999 V2000
    3.7500   -1.2990    0.0000 N   0  0  0  0  0  0  0  0  0  0  0  0
    3.0000    0.0000    0.0000 C   0  0  0  0  0  0  0  0  0  0  0  0
    3.7500    1.2990    0.0000 O   0  0  0  0  0  0  0  0  0  0  0  0
    1.5000    0.0000    0.0000 C   0  0  0  0  0  0  0  0  0  0  0  0
    0.7500   -1.2990    0.0000 C   0  0  0  0  0  0  0  0  0  0  0  0
   -0.7500   -1.2990    0.0000 C   0  0  0  0  0  0  0  0  0  0  0  0
   -1.5000    0.0000    0.0000 C   0  0  0  0  0  0  0  0  0  0  0  0
   -3.0000    0.0000    0.0000 C   0  0  0  0  0  0  0  0  0  0  0  0
   -3.7500    1.2990    0.0000 C   0  0  0  0  0  0  0  0  0  0  0  0
   -3.0000    2.5981    0.0000 N   0  0  0  0  0  0  0  0  0  0  0  0
   -3.7500    3.8971    0.0000 R   0  0  0  0  0  1  0  0  0  1  0  0
   -5.2500    1.2990    0.0000 C   0  0  0  0  0  0  0  0  0  0  0  0
   -6.0000   -0.0000    0.0000 O   0  0  0  0  0  0  0  0  0  0  0  0
   -6.0000    2.5981    0.0000 R   0  0  0  0  0  1  0  0  0  2  0  0
   -0.7500    1.2990    0.0000 C   0  0  0  0  0  0  0  0  0  0  0  0
    0.7500    1.2990    0.0000 C   0  0  0  0  0  0  0  0  0  0  0  0
  1  2  1  0
  2  3  2  0
  2  4  1  0
  4  5  2  0
  5  6  1  0
  6  7  2  0
  7  8  1  0
  9  8  1  1
  9 10  1  0
 10 11  1  0
  9 12  1  0
 12 13  2  0
 12 14  1  0
  7 15  1  0
 15 16  2  0
 16  4  1  0
M  END
>  <id>  (686) 
3be907f1-502e-4f12-a209-d52fb26a90ce

>  <Version>  (686) 
0

>  <Alias>  (686) 
(4-CONH2)Phe

>  <Type>  (686) 
amino_acid

>  <Smiles>  (686) 
NC(=O)c1ccc(C[C@H](N[*:1])C(=O)[*:2])cc1

>  <ProtectedSmiles>  (686) 
NC(=O)c1ccc(C[C@H](NC(=O)OCC2c3ccccc3-c3ccccc32)C(=O)O)cc1

>  <CAS>  (686) 
204716-17-6

>  <User>  (686) 
clement.gensous@orbismedicines.com

>  <StereoComment>  (686) 
as drawn

>  <Name>  (686) 
(4-CONH2)Phe

>  <Code>  (686) 
(4-CONH2)Phe

>  <AliasLowerCase>  (686) 
(4-conh2)phe

>  <LatestVersion>  (686) 
0.0

>  <createdAt>  (686) 
2026-01-15T09:28:32.694Z

>  <updatedAt>  (686) 
2026-01-15T09:28:32.694Z

>  <NumRotatableBonds>  (686) 
5

>  <is_N_methyl>  (686) 
False

>  <is_a_methyl>  (686) 
False

>  <is_alpha_aa>  (686) 
True

>  <is_beta_aa>  (686) 
False

>  <is_S100_aa>  (686) 
False

>  <Murcko_SMILES>  (686) 
c1ccccc1

$$$$

     RDKit          2D

 14 15  0  0  0  0  0  0  0  0999 V2000
    5.1375   -2.6515    0.0000 O   0  0  0  0  0  0  0  0  0  0  0  0
    3.9240   -3.5332    0.0000 C   0  0  0  0  0  0  0  0  0  0  0  0
    2.5537   -2.9231    0.0000 C   0  0  0  0  0  0  0  0  0  0  0  0
    2.2418   -1.4558    0.0000 C   0  0  0  0  0  0  0  0  0  0  0  0
    0.7500   -1.2990    0.0000 C   0  0  0  0  0  0  0  0  0  0  0  0
    1.5000    0.0000    0.0000 C   0  0  0  0  0  0  0  0  0  0  0  0
    0.7500    1.2990    0.0000 C   0  0  0  0  0  0  0  0  0  0  0  0
   -0.7500    1.2990    0.0000 O   0  0  0  0  0  0  0  0  0  0  0  0
   -1.5000    0.0000    0.0000 C   0  0  0  0  0  0  0  0  0  0  0  0
   -0.7500   -1.2990    0.0000 C   0  0  0  0  0  0  0  0  0  0  0  0
    0.1399   -2.6694    0.0000 C   0  0  0  0  0  0  0  0  0  0  0  0
    1.2546   -3.6731    0.0000 N   0  0  0  0  0  0  0  0  0  0  0  0
    1.0978   -5.1648    0.0000 R   0  0  0  0  0  1  0  0  0  1  0  0
    4.0808   -5.0249    0.0000 R   0  0  0  0  0  1  0  0  0  2  0  0
  1  2  2  0
  2  3  1  0
  3  4  1  0
  4  5  1  0
  5  6  1  0
  6  7  1  0
  7  8  1  0
  8  9  1  0
  9 10  1  0
  5 11  1  0
 11 12  1  0
 12 13  1  0
  2 14  1  0
 12  3  1  0
 10  5  1  0
M  END
>  <id>  (687) 
bd176cd3-0b76-4a0b-b6e4-2cdfb9cd562e

>  <Version>  (687) 
0

>  <Alias>  (687) 
rac-8O2AS[4.5]dc3CA

>  <Type>  (687) 
amino_acid

>  <Smiles>  (687) 
O=C(C1CC2(CCOCC2)CN1[*:1])[*:2]

>  <ProtectedSmiles>  (687) 
O=C(O)C1CC2(CCOCC2)CN1C(=O)OCC1c2ccccc2-c2ccccc21

>  <CAS>  (687) 
2230803-86-6

>  <User>  (687) 
mischa.s

>  <StereoComment>  (687) 
as drawn

>  <Name>  (687) 
2-{[(9H-fluoren-9-yl)methoxy]carbonyl}-8-oxa-2-azaspiro[4.5]decane-3-carboxylic acid

>  <Code>  (687) 
rac-8O2AS[4.5]dc3CA

>  <AliasLowerCase>  (687) 
rac-8o2as[4.5]dc3ca

>  <LatestVersion>  (687) 
0.0

>  <createdAt>  (687) 
2026-01-14T11:33:00.389Z

>  <updatedAt>  (687) 
2026-01-14T11:33:00.389Z

>  <NumRotatableBonds>  (687) 
1

>  <is_N_methyl>  (687) 
False

>  <is_a_methyl>  (687) 
False

>  <is_alpha_aa>  (687) 
True

>  <is_beta_aa>  (687) 
False

>  <is_S100_aa>  (687) 
False

>  <Murcko_SMILES>  (687) 
C1CC2(CCOCC2)CN1

$$$$

     RDKit          2D

 10  9  0  0  0  0  0  0  0  0999 V2000
    5.1962   -1.5000    0.0000 O   0  0  0  0  0  0  0  0  0  0  0  0
    5.1962   -0.0000    0.0000 C   0  0  0  0  0  0  0  0  0  0  0  0
    6.4952    0.7500    0.0000 O   0  0  0  0  0  0  0  0  0  0  0  0
    3.8971    0.7500    0.0000 C   0  0  0  0  0  0  0  0  0  0  0  0
    2.5981   -0.0000    0.0000 C   0  0  0  0  0  0  0  0  0  0  0  0
    1.2990    0.7500    0.0000 C   0  0  0  0  0  0  0  0  0  0  0  0
    1.2990    2.2500    0.0000 O   0  0  0  0  0  0  0  0  0  0  0  0
    0.0000    0.0000    0.0000 R   0  0  0  0  0  1  0  0  0  2  0  0
    3.8971    2.2500    0.0000 N   0  0  0  0  0  0  0  0  0  0  0  0
    5.1962    3.0000    0.0000 R   0  0  0  0  0  1  0  0  0  1  0  0
  1  2  2  0
  2  3  1  0
  2  4  1  0
  4  5  1  6
  5  6  1  0
  6  7  2  0
  6  8  1  0
  4  9  1  0
  9 10  1  0
M  END
>  <id>  (688) 
bc48c9a1-1110-4a89-8922-ece2eb705723

>  <Version>  (688) 
0

>  <Alias>  (688) 
Asp(OtBu)

>  <Type>  (688) 
amino_acid

>  <Smiles>  (688) 
O=C(O)[C@H](CC(=O)[*:2])N[*:1]

>  <ProtectedSmiles>  (688) 
CC(C)(C)OC(=O)[C@H](CC(=O)O)NC(=O)OCC1c2ccccc2-c2ccccc21

>  <CAS>  (688) 
129460-09-9

>  <User>  (688) 
sevan.h

>  <StereoComment>  (688) 
as drawn

>  <Name>  (688) 
 Fmoc-Asp-OtBu

>  <Code>  (688) 
Asp(OtBu)

>  <AliasLowerCase>  (688) 
asp(otbu)

>  <LatestVersion>  (688) 
0.0

>  <createdAt>  (688) 
2026-01-14T12:15:34.160Z

>  <updatedAt>  (688) 
2026-01-14T12:15:34.160Z

>  <NumRotatableBonds>  (688) 
4

>  <is_N_methyl>  (688) 
False

>  <is_a_methyl>  (688) 
False

>  <is_alpha_aa>  (688) 
False

>  <is_beta_aa>  (688) 
True

>  <is_S100_aa>  (688) 
False

>  <Murcko_SMILES>  (688) 


$$$$

     RDKit          2D

 16 16  0  0  0  0  0  0  0  0999 V2000
    6.0000   -2.5981    0.0000 C   0  0  0  0  0  0  0  0  0  0  0  0
    5.2500   -1.2990    0.0000 C   0  0  0  0  0  0  0  0  0  0  0  0
    3.7500   -1.2990    0.0000 O   0  0  0  0  0  0  0  0  0  0  0  0
    3.0000    0.0000    0.0000 C   0  0  0  0  0  0  0  0  0  0  0  0
    1.5000    0.0000    0.0000 C   0  0  0  0  0  0  0  0  0  0  0  0
    0.7500   -1.2990    0.0000 C   0  0  0  0  0  0  0  0  0  0  0  0
   -0.7500   -1.2990    0.0000 C   0  0  0  0  0  0  0  0  0  0  0  0
   -1.5000    0.0000    0.0000 C   0  0  0  0  0  0  0  0  0  0  0  0
   -0.7500    1.2990    0.0000 C   0  0  0  0  0  0  0  0  0  0  0  0
    0.7500    1.2990    0.0000 C   0  0  0  0  0  0  0  0  0  0  0  0
    6.0000    0.0000    0.0000 C   0  0  0  0  0  0  0  0  0  0  0  0
    5.2500    1.2990    0.0000 N   0  0  0  0  0  0  0  0  0  0  0  0
    6.0000    2.5981    0.0000 R   0  0  0  0  0  1  0  0  0  1  0  0
    7.5000    0.0000    0.0000 C   0  0  0  0  0  0  0  0  0  0  0  0
    8.2500   -1.2990    0.0000 O   0  0  0  0  0  0  0  0  0  0  0  0
    8.2500    1.2990    0.0000 R   0  0  0  0  0  1  0  0  0  2  0  0
  2  1  1  1
  2  3  1  0
  3  4  1  0
  4  5  1  0
  5  6  2  0
  6  7  1  0
  7  8  2  0
  8  9  1  0
  9 10  2  0
  2 11  1  0
 11 12  1  6
 12 13  1  0
 11 14  1  0
 14 15  2  0
 14 16  1  0
 10  5  1  0
M  END
>  <id>  (689) 
181a3e15-c332-4c36-b8b4-0e7190551cd4

>  <Version>  (689) 
0

>  <Alias>  (689) 
(2S,3R)-3BzButacid

>  <Type>  (689) 
amino_acid

>  <Smiles>  (689) 
C[C@@H](OCc1ccccc1)[C@H](N[*:1])C(=O)[*:2]

>  <ProtectedSmiles>  (689) 
C[C@@H](OCc1ccccc1)[C@H](NC(=O)OCC1c2ccccc2-c2ccccc21)C(=O)O

>  <CAS>  (689) 
117872-75-0

>  <User>  (689) 
angelica.l

>  <StereoComment>  (689) 
as drawn

>  <Name>  (689) 
(2S,3R)-3-(benzyloxy)-2-({[(9H-fluoren-9-yl)methoxy]carbonyl}amino)butanoic acid

>  <Code>  (689) 
(2S,3R)-3BzButacid

>  <AliasLowerCase>  (689) 
(2s,3r)-3bzbutacid

>  <LatestVersion>  (689) 
0.0

>  <createdAt>  (689) 
2026-01-14T11:35:22.975Z

>  <updatedAt>  (689) 
2026-01-14T11:35:22.975Z

>  <NumRotatableBonds>  (689) 
6

>  <is_N_methyl>  (689) 
False

>  <is_a_methyl>  (689) 
False

>  <is_alpha_aa>  (689) 
True

>  <is_beta_aa>  (689) 
False

>  <is_S100_aa>  (689) 
False

>  <Murcko_SMILES>  (689) 
c1ccccc1

$$$$

     RDKit          2D

  8  7  0  0  0  0  0  0  0  0999 V2000
    5.1962   -0.0000    0.0000 C   0  0  0  0  0  0  0  0  0  0  0  0
    3.8971    0.7500    0.0000 C   0  0  0  0  0  0  0  0  0  0  0  0
    2.5981   -0.0000    0.0000 C   0  0  0  0  0  0  0  0  0  0  0  0
    1.2990    0.7500    0.0000 N   0  0  0  0  0  0  0  0  0  0  0  0
    0.0000    0.0000    0.0000 R   0  0  0  0  0  1  0  0  0  1  0  0
    3.8971    2.2500    0.0000 C   0  0  0  0  0  0  0  0  0  0  0  0
    2.5981    3.0000    0.0000 O   0  0  0  0  0  0  0  0  0  0  0  0
    5.1962    3.0000    0.0000 R   0  0  0  0  0  1  0  0  0  2  0  0
  1  2  1  0
  2  3  1  0
  3  4  1  0
  4  5  1  0
  2  6  1  0
  6  7  2  0
  6  8  1  0
M  END
>  <id>  (690) 
79220239-4003-4553-a82e-04da234a6457

>  <Version>  (690) 
0

>  <Alias>  (690) 
rac-AiBA

>  <Type>  (690) 
amino_acid

>  <Smiles>  (690) 
CC(CN[*:1])C(=O)[*:2]

>  <ProtectedSmiles>  (690) 
CC(CNC(=O)OCC1c2ccccc2-c2ccccc21)C(=O)O

>  <CAS>  (690) 
186320-19-4

>  <User>  (690) 
mischa.s

>  <StereoComment>  (690) 
as drawn

>  <Name>  (690) 
rac-AiBA

>  <Code>  (690) 
rac-AiBA

>  <AliasLowerCase>  (690) 
rac-aiba

>  <LatestVersion>  (690) 
0.0

>  <createdAt>  (690) 
2026-01-14T11:36:26.245Z

>  <updatedAt>  (690) 
2026-01-14T11:36:26.245Z

>  <NumRotatableBonds>  (690) 
3

>  <is_N_methyl>  (690) 
False

>  <is_a_methyl>  (690) 
False

>  <is_alpha_aa>  (690) 
False

>  <is_beta_aa>  (690) 
True

>  <is_S100_aa>  (690) 
False

>  <Murcko_SMILES>  (690) 


$$$$

     RDKit          2D

 15 16  0  0  0  0  0  0  0  0999 V2000
    2.7990   -0.3481    0.0000 O   0  0  0  0  0  0  0  0  0  0  0  0
    2.7990   -1.8481    0.0000 C   0  0  0  0  0  0  0  0  0  0  0  0
    1.5000   -2.5981    0.0000 C   0  0  0  0  0  0  0  0  0  0  0  0
    0.7500   -1.2990    0.0000 C   0  0  0  0  0  0  0  0  0  0  0  0
    1.5000    0.0000    0.0000 C   0  0  0  0  0  0  0  0  0  0  0  0
    0.7500    1.2990    0.0000 C   0  0  0  0  0  0  0  0  0  0  0  0
   -0.7500    1.2990    0.0000 C   0  0  0  0  0  0  0  0  0  0  0  0
   -1.5000    2.5981    0.0000 N   0  0  0  0  0  0  0  0  0  0  0  0
   -0.7500    3.8971    0.0000 R   0  0  0  0  0  1  0  0  0  1  0  0
   -1.5000    0.0000    0.0000 C   0  0  0  0  0  0  0  0  0  0  0  0
   -0.7500   -1.2990    0.0000 C   0  0  0  0  0  0  0  0  0  0  0  0
    0.2010   -3.3481    0.0000 C   0  0  0  0  0  0  0  0  0  0  0  0
    0.9510   -4.6471    0.0000 C   0  0  0  0  0  0  0  0  0  0  0  0
    2.2500   -3.8971    0.0000 C   0  0  0  0  0  0  0  0  0  0  0  0
    4.0981   -2.5981    0.0000 R   0  0  0  0  0  1  0  0  0  2  0  0
  1  2  2  0
  2  3  1  0
  3  4  1  0
  4  5  2  0
  5  6  1  0
  6  7  2  0
  7  8  1  0
  8  9  1  0
  7 10  1  0
 10 11  2  0
  3 12  1  0
 12 13  1  0
 13 14  1  0
  2 15  1  0
 14  3  1  0
 11  4  1  0
M  END
>  <id>  (691) 
02590b15-4298-4dc2-850e-05b1bbc744d8

>  <Version>  (691) 
0

>  <Alias>  (691) 
cBuAnil

>  <Type>  (691) 
amino_acid

>  <Smiles>  (691) 
O=C(C1(c2ccc(N[*:1])cc2)CCC1)[*:2]

>  <ProtectedSmiles>  (691) 
O=C(Nc1ccc(C2(C(=O)O)CCC2)cc1)OCC1c2ccccc2-c2ccccc21

>  <CAS>  (691) 
2248268-30-4

>  <User>  (691) 
marie.g

>  <StereoComment>  (691) 
as drawn

>  <Name>  (691) 
1-[4-({[(9H-fluoren-9-yl)methoxy]carbonyl}amino)phenyl]cyclobutane-1-carboxylic acid

>  <Code>  (691) 
cBuAnil

>  <AliasLowerCase>  (691) 
cbuanil

>  <LatestVersion>  (691) 
0.0

>  <createdAt>  (691) 
2026-01-14T11:33:53.202Z

>  <updatedAt>  (691) 
2026-01-14T11:33:53.202Z

>  <NumRotatableBonds>  (691) 
3

>  <is_N_methyl>  (691) 
False

>  <is_a_methyl>  (691) 
False

>  <is_alpha_aa>  (691) 
False

>  <is_beta_aa>  (691) 
False

>  <is_S100_aa>  (691) 
False

>  <Murcko_SMILES>  (691) 
c1ccc(C2CCC2)cc1

$$$$

     RDKit          2D

 15 15  0  0  0  0  0  0  0  0999 V2000
    3.0000    0.0000    0.0000 C   0  0  0  0  0  0  0  0  0  0  0  0
    1.5000    0.0000    0.0000 C   0  0  0  0  0  0  0  0  0  0  0  0
    0.7500   -1.2990    0.0000 C   0  0  0  0  0  0  0  0  0  0  0  0
   -0.7500   -1.2990    0.0000 C   0  0  0  0  0  0  0  0  0  0  0  0
   -1.5000    0.0000    0.0000 C   0  0  0  0  0  0  0  0  0  0  0  0
   -3.0000    0.0000    0.0000 C   0  0  0  0  0  0  0  0  0  0  0  0
   -3.7500    1.2990    0.0000 C   0  0  0  0  0  0  0  0  0  0  0  0
   -5.2500    1.2990    0.0000 C   0  0  0  0  0  0  0  0  0  0  0  0
   -6.0000   -0.0000    0.0000 O   0  0  0  0  0  0  0  0  0  0  0  0
   -6.0000    2.5981    0.0000 R   0  0  0  0  0  1  0  0  0  2  0  0
   -3.7500   -1.2990    0.0000 N   0  0  0  0  0  0  0  0  0  0  0  0
   -5.2500   -1.2990    0.0000 R   0  0  0  0  0  1  0  0  0  1  0  0
   -0.7500    1.2990    0.0000 C   0  0  0  0  0  0  0  0  0  0  0  0
    0.7500    1.2990    0.0000 C   0  0  0  0  0  0  0  0  0  0  0  0
    1.5000    2.5981    0.0000 C   0  0  0  0  0  0  0  0  0  0  0  0
  1  2  1  0
  2  3  2  0
  3  4  1  0
  4  5  2  0
  5  6  1  0
  6  7  1  0
  7  8  1  0
  8  9  2  0
  8 10  1  0
  6 11  1  0
 11 12  1  0
  5 13  1  0
 13 14  2  0
 14 15  1  0
 14  2  1  0
M  END
>  <id>  (692) 
cc616ed0-f235-4402-85c1-2cb075d2eef1

>  <Version>  (692) 
0

>  <Alias>  (692) 
rac-3-(3,4-diMePh)PA

>  <Type>  (692) 
amino_acid

>  <Smiles>  (692) 
Cc1ccc(C(CC(=O)[*:2])N[*:1])cc1C

>  <ProtectedSmiles>  (692) 
Cc1ccc(C(CC(=O)O)NC(=O)OCC2c3ccccc3-c3ccccc32)cc1C

>  <CAS>  (692) 
683218-23-7

>  <User>  (692) 
mischa.s

>  <StereoComment>  (692) 
as drawn

>  <Name>  (692) 
3-(3,4-dimethylphenyl)-3-({[(9H-fluoren-9-yl)methoxy]carbonyl}amino)propanoic acid

>  <Code>  (692) 
rac-3-(3,4-diMePh)PA

>  <AliasLowerCase>  (692) 
rac-3-(3,4-dimeph)pa

>  <LatestVersion>  (692) 
0.0

>  <createdAt>  (692) 
2026-01-14T11:33:04.968Z

>  <updatedAt>  (692) 
2026-01-14T11:33:04.968Z

>  <NumRotatableBonds>  (692) 
4

>  <is_N_methyl>  (692) 
False

>  <is_a_methyl>  (692) 
False

>  <is_alpha_aa>  (692) 
False

>  <is_beta_aa>  (692) 
True

>  <is_S100_aa>  (692) 
False

>  <Murcko_SMILES>  (692) 
c1ccccc1

$$$$

     RDKit          2D

 12 12  0  0  0  0  0  0  0  0999 V2000
    3.0000   -2.5981    0.0000 O   0  0  0  0  0  0  0  0  0  0  0  0
    3.7500   -1.2990    0.0000 C   0  0  0  0  0  0  0  0  0  0  0  0
    3.0000    0.0000    0.0000 C   0  0  0  0  0  0  0  0  0  0  0  0
    3.7500    1.2990    0.0000 N   0  0  0  0  0  0  0  0  0  0  0  0
    5.2500    1.2990    0.0000 R   0  0  0  0  0  1  0  0  0  1  0  0
    1.5000    0.0000    0.0000 C   0  0  0  0  0  0  0  0  0  0  0  0
    0.7500   -1.2990    0.0000 C   0  0  0  0  0  0  0  0  0  0  0  0
   -0.7500   -1.2990    0.0000 C   0  0  0  0  0  0  0  0  0  0  0  0
   -1.5000    0.0000    0.0000 C   0  0  0  0  0  0  0  0  0  0  0  0
   -0.7500    1.2990    0.0000 C   0  0  0  0  0  0  0  0  0  0  0  0
    0.7500    1.2990    0.0000 C   0  0  0  0  0  0  0  0  0  0  0  0
    5.2500   -1.2990    0.0000 R   0  0  0  0  0  1  0  0  0  2  0  0
  1  2  2  0
  2  3  1  0
  3  4  1  1
  4  5  1  0
  3  6  1  0
  6  7  2  0
  7  8  1  0
  8  9  2  0
  9 10  1  0
 10 11  2  0
  2 12  1  0
 11  6  1  0
M  END
>  <id>  (693) 
8ca48ede-fd4e-4cfe-a3e0-fdc9ea5b2709

>  <Version>  (693) 
0

>  <Alias>  (693) 
D-Phg

>  <Type>  (693) 
amino_acid

>  <Smiles>  (693) 
O=C([C@H](N[*:1])c1ccccc1)[*:2]

>  <ProtectedSmiles>  (693) 
O=C(N[C@@H](C(=O)O)c1ccccc1)OCC1c2ccccc2-c2ccccc21

>  <CAS>  (693) 
111524-95-9

>  <User>  (693) 
sevan.h

>  <StereoComment>  (693) 
as drawn

>  <Name>  (693) 
Fmoc-d-phg-oh

>  <Code>  (693) 
D-Phg

>  <AliasLowerCase>  (693) 
d-phg

>  <LatestVersion>  (693) 
0.0

>  <createdAt>  (693) 
2026-01-14T12:15:05.762Z

>  <updatedAt>  (693) 
2026-01-14T12:15:05.762Z

>  <NumRotatableBonds>  (693) 
3

>  <is_N_methyl>  (693) 
False

>  <is_a_methyl>  (693) 
False

>  <is_alpha_aa>  (693) 
True

>  <is_beta_aa>  (693) 
False

>  <is_S100_aa>  (693) 
False

>  <Murcko_SMILES>  (693) 
c1ccccc1

$$$$

     RDKit          2D

 11 10  0  0  0  0  0  0  0  0999 V2000
    5.9462    1.2990    0.0000 C   0  0  0  0  0  0  0  0  0  0  0  0
    5.1962   -0.0000    0.0000 C   0  0  0  0  0  0  0  0  0  0  0  0
    4.4462   -1.2990    0.0000 C   0  0  0  0  0  0  0  0  0  0  0  0
    6.4952   -0.7500    0.0000 C   0  0  0  0  0  0  0  0  0  0  0  0
    3.8971    0.7500    0.0000 C   0  0  0  0  0  0  0  0  0  0  0  0
    2.5981   -0.0000    0.0000 C   0  0  0  0  0  0  0  0  0  0  0  0
    1.2990    0.7500    0.0000 N   0  0  0  0  0  0  0  0  0  0  0  0
    0.0000    0.0000    0.0000 R   0  0  0  0  0  1  0  0  0  1  0  0
    2.5981   -1.5000    0.0000 C   0  0  0  0  0  0  0  0  0  0  0  0
    1.2990   -2.2500    0.0000 O   0  0  0  0  0  0  0  0  0  0  0  0
    3.8971   -2.2500    0.0000 R   0  0  0  0  0  1  0  0  0  2  0  0
  1  2  1  0
  2  3  1  0
  2  4  1  0
  2  5  1  0
  6  5  1  6
  6  7  1  0
  7  8  1  0
  6  9  1  0
  9 10  2  0
  9 11  1  0
M  END
>  <id>  (694) 
a191b49d-daf1-4cc6-93ce-d6c2484a97ec

>  <Version>  (694) 
0

>  <Alias>  (694) 
D-tBuAla

>  <Type>  (694) 
amino_acid

>  <Smiles>  (694) 
CC(C)(C)C[C@@H](N[*:1])C(=O)[*:2]

>  <ProtectedSmiles>  (694) 
CC(C)(C)C[C@@H](NC(=O)OCC1c2ccccc2-c2ccccc21)C(=O)O

>  <CAS>  (694) 
359766-58-8

>  <User>  (694) 
sevan.h

>  <StereoComment>  (694) 
as drawn

>  <Name>  (694) 
Fmoc-D-tBu-Ala-OH

>  <Code>  (694) 
D-tBuAla

>  <AliasLowerCase>  (694) 
d-tbuala

>  <LatestVersion>  (694) 
0.0

>  <createdAt>  (694) 
2026-01-14T12:15:25.242Z

>  <updatedAt>  (694) 
2026-01-14T12:15:25.242Z

>  <NumRotatableBonds>  (694) 
3

>  <is_N_methyl>  (694) 
False

>  <is_a_methyl>  (694) 
False

>  <is_alpha_aa>  (694) 
True

>  <is_beta_aa>  (694) 
False

>  <is_S100_aa>  (694) 
False

>  <Murcko_SMILES>  (694) 


$$$$

     RDKit          2D

 10  9  0  0  0  0  0  0  0  0999 V2000
    5.1962    3.0000    0.0000 C   0  0  0  0  0  0  0  0  0  0  0  0
    3.8971    2.2500    0.0000 O   0  0  0  0  0  0  0  0  0  0  0  0
    3.8971    0.7500    0.0000 C   0  0  0  0  0  0  0  0  0  0  0  0
    5.1962   -0.0000    0.0000 C   0  0  0  0  0  0  0  0  0  0  0  0
    2.5981   -0.0000    0.0000 C   0  0  0  0  0  0  0  0  0  0  0  0
    1.2990    0.7500    0.0000 N   0  0  0  0  0  0  0  0  0  0  0  0
    0.0000    0.0000    0.0000 R   0  0  0  0  0  1  0  0  0  1  0  0
    2.5981   -1.5000    0.0000 C   0  0  0  0  0  0  0  0  0  0  0  0
    1.2990   -2.2500    0.0000 O   0  0  0  0  0  0  0  0  0  0  0  0
    3.8971   -2.2500    0.0000 R   0  0  0  0  0  1  0  0  0  2  0  0
  1  2  1  0
  2  3  1  0
  3  4  1  6
  3  5  1  0
  5  6  1  1
  6  7  1  0
  5  8  1  0
  8  9  2  0
  8 10  1  0
M  END
>  <id>  (695) 
4afbf3ec-5053-40b4-86ac-082205ed732b

>  <Version>  (695) 
0

>  <Alias>  (695) 
Thr(OMe)

>  <Type>  (695) 
amino_acid

>  <Smiles>  (695) 
CO[C@H](C)[C@H](N[*:1])C(=O)[*:2]

>  <ProtectedSmiles>  (695) 
CO[C@H](C)[C@H](NC(=O)OCC1c2ccccc2-c2ccccc21)C(=O)O

>  <CAS>  (695) 
928063-81-4

>  <User>  (695) 
gontran.s

>  <StereoComment>  (695) 
as drawn

>  <Name>  (695) 
(2S,3R)-2-({[(9H-fluoren-9-yl)methoxy]carbonyl}amino)-3-methoxybutanoic acid

>  <Code>  (695) 
Thr(OMe)

>  <AliasLowerCase>  (695) 
thr(ome)

>  <LatestVersion>  (695) 
0.0

>  <createdAt>  (695) 
2026-01-14T11:38:34.908Z

>  <updatedAt>  (695) 
2026-01-14T11:38:34.908Z

>  <NumRotatableBonds>  (695) 
4

>  <is_N_methyl>  (695) 
False

>  <is_a_methyl>  (695) 
False

>  <is_alpha_aa>  (695) 
True

>  <is_beta_aa>  (695) 
False

>  <is_S100_aa>  (695) 
False

>  <Murcko_SMILES>  (695) 


$$$$

     RDKit          2D

 14 14  0  0  0  0  0  0  0  0999 V2000
    6.0000    0.0000    0.0000 O   0  0  0  0  0  0  0  0  0  0  0  0
    5.2500   -1.2990    0.0000 C   0  0  0  0  0  0  0  0  0  0  0  0
    3.7500   -1.2990    0.0000 C   0  0  0  0  0  0  0  0  0  0  0  0
    3.0000   -2.5981    0.0000 N   0  0  0  0  0  0  0  0  0  0  0  0
    3.7500   -3.8971    0.0000 R   0  0  0  0  0  1  0  0  0  1  0  0
    3.0000    0.0000    0.0000 C   0  0  0  0  0  0  0  0  0  0  0  0
    3.7500    1.2990    0.0000 O   0  0  0  0  0  0  0  0  0  0  0  0
    1.5000    0.0000    0.0000 C   0  0  0  0  0  0  0  0  0  0  0  0
    0.7500   -1.2990    0.0000 C   0  0  0  0  0  0  0  0  0  0  0  0
   -0.7500   -1.2990    0.0000 C   0  0  0  0  0  0  0  0  0  0  0  0
   -1.5000    0.0000    0.0000 C   0  0  0  0  0  0  0  0  0  0  0  0
   -0.7500    1.2990    0.0000 C   0  0  0  0  0  0  0  0  0  0  0  0
    0.7500    1.2990    0.0000 C   0  0  0  0  0  0  0  0  0  0  0  0
    6.0000   -2.5981    0.0000 R   0  0  0  0  0  1  0  0  0  2  0  0
  1  2  2  0
  2  3  1  0
  3  4  1  1
  4  5  1  0
  3  6  1  0
  6  7  1  1
  6  8  1  0
  8  9  2  0
  9 10  1  0
 10 11  2  0
 11 12  1  0
 12 13  2  0
  2 14  1  0
 13  8  1  0
M  END
>  <id>  (696) 
b884a6b7-2ed0-446c-a1ca-d95304806e84

>  <Version>  (696) 
0

>  <Alias>  (696) 
B-OHPhe

>  <Type>  (696) 
amino_acid

>  <Smiles>  (696) 
O=C([C@@H](N[*:1])[C@H](O)c1ccccc1)[*:2]

>  <ProtectedSmiles>  (696) 
O=C(N[C@H](C(=O)O)[C@H](O)c1ccccc1)OCC1c2ccccc2-c2ccccc21

>  <CAS>  (696) 
487060-72-0

>  <User>  (696) 
Sevan.habeshian@orbismedicines.com

>  <StereoComment>  (696) 
mixture of diastereoisomers

>  <Name>  (696) 
N/A

>  <Code>  (696) 
B-OHPhe

>  <AliasLowerCase>  (696) 
b-ohphe

>  <LatestVersion>  (696) 
0.0

>  <createdAt>  (696) 
2026-02-13T09:56:36.301Z

>  <updatedAt>  (696) 
2026-02-13T09:56:36.301Z

>  <NumRotatableBonds>  (696) 
4

>  <is_N_methyl>  (696) 
False

>  <is_a_methyl>  (696) 
False

>  <is_alpha_aa>  (696) 
True

>  <is_beta_aa>  (696) 
False

>  <is_S100_aa>  (696) 
False

>  <Murcko_SMILES>  (696) 
c1ccccc1

$$$$

     RDKit          2D

 14 15  0  0  0  0  0  0  0  0999 V2000
    3.7500    1.2990    0.0000 O   0  0  0  0  0  0  0  0  0  0  0  0
    3.0000    0.0000    0.0000 C   0  0  0  0  0  0  0  0  0  0  0  0
    1.5000    0.0000    0.0000 C   0  0  0  0  0  0  0  0  0  0  0  0
    0.7500   -1.2990    0.0000 C   0  0  0  0  0  0  0  0  0  0  0  0
   -0.7500   -1.2990    0.0000 C   0  0  0  0  0  0  0  0  0  0  0  0
   -1.5000    0.0000    0.0000 C   0  0  0  0  0  0  0  0  0  0  0  0
   -0.7500    1.2990    0.0000 C   0  0  0  0  0  0  0  0  0  0  0  0
    0.7500    1.2990    0.0000 N   0  0  0  0  0  0  0  0  0  0  0  0
   -1.5000    2.5981    0.0000 C   0  0  0  0  0  0  0  0  0  0  0  0
   -3.0000    2.5981    0.0000 N   0  0  0  0  0  0  0  0  0  0  0  0
   -3.7500    3.8971    0.0000 R   0  0  0  0  0  1  0  0  0  1  0  0
   -3.7500    1.2990    0.0000 C   0  0  0  0  0  0  0  0  0  0  0  0
   -3.0000    0.0000    0.0000 C   0  0  0  0  0  0  0  0  0  0  0  0
    3.7500   -1.2990    0.0000 R   0  0  0  0  0  1  0  0  0  2  0  0
  1  2  2  0
  2  3  1  0
  3  4  2  0
  4  5  1  0
  5  6  2  0
  6  7  1  0
  7  8  2  0
  7  9  1  0
  9 10  1  0
 10 11  1  0
 10 12  1  0
 12 13  1  0
  2 14  1  0
  8  3  1  0
 13  6  1  0
M  END
>  <id>  (697) 
16194cb8-5a21-49c0-9ed5-3d1d60525a59

>  <Version>  (697) 
0

>  <Alias>  (697) 
THNQCA

>  <Type>  (697) 
amino_acid

>  <Smiles>  (697) 
O=C(c1ccc2c(n1)CN([*:1])CC2)[*:2]

>  <ProtectedSmiles>  (697) 
O=C(O)c1ccc2c(n1)CN(C(=O)OCC1c3ccccc3-c3ccccc31)CC2

>  <CAS>  (697) 
2137569-55-0

>  <User>  (697) 
Sevan.habeshian@orbismedicines.com

>  <StereoComment>  (697) 
as drawn

>  <Name>  (697) 
N/A

>  <Code>  (697) 
THNQCA

>  <AliasLowerCase>  (697) 
thnqca

>  <LatestVersion>  (697) 
0.0

>  <createdAt>  (697) 
2026-02-13T09:56:36.304Z

>  <updatedAt>  (697) 
2026-02-13T09:56:36.304Z

>  <NumRotatableBonds>  (697) 
1

>  <is_N_methyl>  (697) 
False

>  <is_a_methyl>  (697) 
False

>  <is_alpha_aa>  (697) 
False

>  <is_beta_aa>  (697) 
False

>  <is_S100_aa>  (697) 
False

>  <Murcko_SMILES>  (697) 
c1cnc2c(c1)CCNC2

$$$$

     RDKit          2D

 15 15  0  0  0  0  0  0  0  0999 V2000
    3.7500   -1.2990    0.0000 C   0  0  0  0  0  0  0  0  0  0  0  0
    3.0000    0.0000    0.0000 O   0  0  0  0  0  0  0  0  0  0  0  0
    1.5000    0.0000    0.0000 C   0  0  0  0  0  0  0  0  0  0  0  0
    0.7500   -1.2990    0.0000 C   0  0  0  0  0  0  0  0  0  0  0  0
   -0.7500   -1.2990    0.0000 C   0  0  0  0  0  0  0  0  0  0  0  0
   -1.5000    0.0000    0.0000 C   0  0  0  0  0  0  0  0  0  0  0  0
   -0.7500    1.2990    0.0000 C   0  0  0  0  0  0  0  0  0  0  0  0
   -1.5000    2.5981    0.0000 C   0  0  0  0  0  0  0  0  0  0  0  0
   -0.7500    3.8971    0.0000 C   0  0  0  0  0  0  0  0  0  0  0  0
    0.7500    3.8971    0.0000 N   0  0  0  0  0  0  0  0  0  0  0  0
    1.5000    5.1962    0.0000 R   0  0  0  0  0  1  0  0  0  1  0  0
   -1.5000    5.1962    0.0000 C   0  0  0  0  0  0  0  0  0  0  0  0
   -3.0000    5.1962    0.0000 O   0  0  0  0  0  0  0  0  0  0  0  0
   -0.7500    6.4952    0.0000 R   0  0  0  0  0  1  0  0  0  2  0  0
    0.7500    1.2990    0.0000 C   0  0  0  0  0  0  0  0  0  0  0  0
  1  2  1  0
  2  3  1  0
  3  4  2  0
  4  5  1  0
  5  6  2  0
  6  7  1  0
  7  8  1  0
  9  8  1  1
  9 10  1  0
 10 11  1  0
  9 12  1  0
 12 13  2  0
 12 14  1  0
  7 15  2  0
 15  3  1  0
M  END
>  <id>  (698) 
96c11728-8282-4d1b-abb0-741058384806

>  <Version>  (698) 
0

>  <Alias>  (698) 
3MeOPhe

>  <Type>  (698) 
amino_acid

>  <Smiles>  (698) 
COc1cccc(C[C@H](N[*:1])C(=O)[*:2])c1

>  <ProtectedSmiles>  (698) 
COc1cccc(C[C@H](NC(=O)OCC2c3ccccc3-c3ccccc32)C(=O)O)c1

>  <CAS>  (698) 
206060-40-4

>  <User>  (698) 
angelica.l

>  <StereoComment>  (698) 
as drawn

>  <Name>  (698) 
Fmoc-L-3-methoxyphenylalanine

>  <Code>  (698) 
3MeOPhe

>  <AliasLowerCase>  (698) 
3meophe

>  <LatestVersion>  (698) 
0.0

>  <createdAt>  (698) 
2026-01-14T11:34:26.730Z

>  <updatedAt>  (698) 
2026-01-14T11:34:26.730Z

>  <NumRotatableBonds>  (698) 
5

>  <is_N_methyl>  (698) 
False

>  <is_a_methyl>  (698) 
False

>  <is_alpha_aa>  (698) 
True

>  <is_beta_aa>  (698) 
False

>  <is_S100_aa>  (698) 
False

>  <Murcko_SMILES>  (698) 
c1ccccc1

$$$$

     RDKit          2D

 11 11  0  0  0  0  0  0  0  0999 V2000
    3.7500    1.2990    0.0000 O   0  0  0  0  0  0  0  0  0  0  0  0
    3.0000    0.0000    0.0000 C   0  0  0  0  0  0  0  0  0  0  0  0
    1.5000    0.0000    0.0000 C   0  0  0  0  0  0  0  0  0  0  0  0
    0.7500   -1.2990    0.0000 C   0  0  0  0  0  0  0  0  0  0  0  0
   -0.7500   -1.2990    0.0000 C   0  0  0  0  0  0  0  0  0  0  0  0
   -1.5000    0.0000    0.0000 C   0  0  0  0  0  0  0  0  0  0  0  0
   -0.7500    1.2990    0.0000 C   0  0  0  0  0  0  0  0  0  0  0  0
    0.7500    1.2990    0.0000 C   0  0  0  0  0  0  0  0  0  0  0  0
    1.5000    2.5981    0.0000 N   0  0  0  0  0  0  0  0  0  0  0  0
    0.7500    3.8971    0.0000 R   0  0  0  0  0  1  0  0  0  1  0  0
    3.7500   -1.2990    0.0000 R   0  0  0  0  0  1  0  0  0  2  0  0
  1  2  2  0
  3  2  1  1
  3  4  1  0
  4  5  1  0
  5  6  1  0
  6  7  1  0
  7  8  1  0
  8  9  1  1
  9 10  1  0
  2 11  1  0
  8  3  1  0
M  END
>  <id>  (699) 
e361ec80-b136-4738-8288-7b3f0cb0ef86

>  <Version>  (699) 
0

>  <Alias>  (699) 
1S,2R-ACH

>  <Type>  (699) 
amino_acid

>  <Smiles>  (699) 
O=C([C@H]1CCCC[C@H]1N[*:1])[*:2]

>  <ProtectedSmiles>  (699) 
O=C(N[C@@H]1CCCC[C@@H]1C(=O)O)OCC1c2ccccc2-c2ccccc21

>  <CAS>  (699) 
430460-38-1

>  <User>  (699) 
angelica.l

>  <StereoComment>  (699) 
as drawn

>  <Name>  (699) 
(1S,2R)-Fmoc-2-aminocyclohexane carboxylic acid

>  <Code>  (699) 
1S,2R-ACH

>  <AliasLowerCase>  (699) 
1s,2r-ach

>  <LatestVersion>  (699) 
0.0

>  <createdAt>  (699) 
2026-01-14T11:36:17.591Z

>  <updatedAt>  (699) 
2026-01-14T11:36:17.591Z

>  <NumRotatableBonds>  (699) 
2

>  <is_N_methyl>  (699) 
False

>  <is_a_methyl>  (699) 
False

>  <is_alpha_aa>  (699) 
False

>  <is_beta_aa>  (699) 
True

>  <is_S100_aa>  (699) 
False

>  <Murcko_SMILES>  (699) 
C1CCCCC1

$$$$

     RDKit          2D

 14 14  0  0  0  0  0  0  0  0999 V2000
    6.0000    0.0000    0.0000 O   0  0  0  0  0  0  0  0  0  0  0  0
    5.2500   -1.2990    0.0000 C   0  0  0  0  0  0  0  0  0  0  0  0
    3.7500   -1.2990    0.0000 C   0  0  0  0  0  0  0  0  0  0  0  0
    3.0000    0.0000    0.0000 C   0  0  0  0  0  0  0  0  0  0  0  0
    3.7500    1.2990    0.0000 N   0  0  0  0  0  0  0  0  0  0  0  0
    5.2500    1.2990    0.0000 R   0  0  0  0  0  1  0  0  0  1  0  0
    1.5000    0.0000    0.0000 C   0  0  0  0  0  0  0  0  0  0  0  0
    0.7500   -1.2990    0.0000 C   0  0  0  0  0  0  0  0  0  0  0  0
   -0.7500   -1.2990    0.0000 C   0  0  0  0  0  0  0  0  0  0  0  0
   -1.5000    0.0000    0.0000 C   0  0  0  0  0  0  0  0  0  0  0  0
   -0.7500    1.2990    0.0000 C   0  0  0  0  0  0  0  0  0  0  0  0
   -1.5000    2.5981    0.0000 Cl  0  0  0  0  0  0  0  0  0  0  0  0
    0.7500    1.2990    0.0000 C   0  0  0  0  0  0  0  0  0  0  0  0
    6.0000   -2.5981    0.0000 R   0  0  0  0  0  1  0  0  0  2  0  0
  1  2  2  0
  2  3  1  0
  3  4  1  0
  4  5  1  0
  5  6  1  0
  4  7  1  0
  7  8  2  0
  8  9  1  0
  9 10  2  0
 10 11  1  0
 11 12  1  0
 11 13  2  0
  2 14  1  0
 13  7  1  0
M  END
>  <id>  (700) 
0bc1f914-95ac-46d7-b662-4734720bd873

>  <Version>  (700) 
0

>  <Alias>  (700) 
rac-(3ClPh)3PA

>  <Type>  (700) 
amino_acid

>  <Smiles>  (700) 
O=C(CC(N[*:1])c1cccc(Cl)c1)[*:2]

>  <ProtectedSmiles>  (700) 
O=C(O)CC(NC(=O)OCC1c2ccccc2-c2ccccc21)c1cccc(Cl)c1

>  <CAS>  (700) 
284492-15-5

>  <User>  (700) 
mischa.s

>  <StereoComment>  (700) 
as drawn

>  <Name>  (700) 
3-(3-chlorophenyl)-3-({[(9H-fluoren-9-yl)methoxy]carbonyl}amino)propanoic acid

>  <Code>  (700) 
rac-(3ClPh)3PA

>  <AliasLowerCase>  (700) 
rac-(3clph)3pa

>  <LatestVersion>  (700) 
0.0

>  <createdAt>  (700) 
2026-01-14T11:32:56.889Z

>  <updatedAt>  (700) 
2026-01-14T11:32:56.889Z

>  <NumRotatableBonds>  (700) 
4

>  <is_N_methyl>  (700) 
False

>  <is_a_methyl>  (700) 
False

>  <is_alpha_aa>  (700) 
False

>  <is_beta_aa>  (700) 
True

>  <is_S100_aa>  (700) 
False

>  <Murcko_SMILES>  (700) 
c1ccccc1

$$$$

     RDKit          2D

 10  9  0  0  0  0  0  0  0  0999 V2000
    3.1471    2.0490    0.0000 C   0  0  0  0  0  0  0  0  0  0  0  0
    3.8971    0.7500    0.0000 C   0  0  0  0  0  0  0  0  0  0  0  0
    4.6471   -0.5490    0.0000 C   0  0  0  0  0  0  0  0  0  0  0  0
    5.1962    1.5000    0.0000 O   0  0  0  0  0  0  0  0  0  0  0  0
    2.5981   -0.0000    0.0000 C   0  0  0  0  0  0  0  0  0  0  0  0
    1.2990    0.7500    0.0000 N   0  0  0  0  0  0  0  0  0  0  0  0
    0.0000    0.0000    0.0000 R   0  0  0  0  0  1  0  0  0  1  0  0
    2.5981   -1.5000    0.0000 C   0  0  0  0  0  0  0  0  0  0  0  0
    1.2990   -2.2500    0.0000 O   0  0  0  0  0  0  0  0  0  0  0  0
    3.8971   -2.2500    0.0000 R   0  0  0  0  0  1  0  0  0  2  0  0
  1  2  1  0
  2  3  1  0
  2  4  1  0
  2  5  1  0
  5  6  1  1
  6  7  1  0
  5  8  1  0
  8  9  2  0
  8 10  1  0
M  END
>  <id>  (701) 
399a5c03-6efa-422e-80e1-a148be157b73

>  <Version>  (701) 
0

>  <Alias>  (701) 
B-OH-Val

>  <Type>  (701) 
amino_acid

>  <Smiles>  (701) 
CC(C)(O)[C@H](N[*:1])C(=O)[*:2]

>  <ProtectedSmiles>  (701) 
CC(C)(O)[C@H](NC(=O)OCC1c2ccccc2-c2ccccc21)C(=O)O

>  <CAS>  (701) 
1217603-41-2

>  <User>  (701) 
sevan.h

>  <StereoComment>  (701) 
as drawn

>  <Name>  (701) 
Fmoc-(S)-2-amino-3-hydroxy-3-methylbutanoic acid

>  <Code>  (701) 
B-OH-Val

>  <AliasLowerCase>  (701) 
b-oh-val

>  <LatestVersion>  (701) 
0.0

>  <createdAt>  (701) 
2026-01-14T12:15:22.097Z

>  <updatedAt>  (701) 
2026-01-14T12:15:22.097Z

>  <NumRotatableBonds>  (701) 
3

>  <is_N_methyl>  (701) 
False

>  <is_a_methyl>  (701) 
False

>  <is_alpha_aa>  (701) 
True

>  <is_beta_aa>  (701) 
False

>  <is_S100_aa>  (701) 
False

>  <Murcko_SMILES>  (701) 


$$$$

     RDKit          2D

 14 14  0  0  0  0  0  0  0  0999 V2000
    3.0000    0.0000    0.0000 C   0  0  0  0  0  0  0  0  0  0  0  0
    1.5000    0.0000    0.0000 C   0  0  0  0  0  0  0  0  0  0  0  0
    0.7500   -1.2990    0.0000 C   0  0  0  0  0  0  0  0  0  0  0  0
   -0.7500   -1.2990    0.0000 C   0  0  0  0  0  0  0  0  0  0  0  0
   -1.5000    0.0000    0.0000 C   0  0  0  0  0  0  0  0  0  0  0  0
   -3.0000    0.0000    0.0000 C   0  0  0  0  0  0  0  0  0  0  0  0
   -3.7500    1.2990    0.0000 C   0  0  0  0  0  0  0  0  0  0  0  0
   -5.2500    1.2990    0.0000 C   0  0  0  0  0  0  0  0  0  0  0  0
   -6.0000   -0.0000    0.0000 O   0  0  0  0  0  0  0  0  0  0  0  0
   -6.0000    2.5981    0.0000 R   0  0  0  0  0  1  0  0  0  2  0  0
   -3.7500   -1.2990    0.0000 N   0  0  0  0  0  0  0  0  0  0  0  0
   -5.2500   -1.2990    0.0000 R   0  0  0  0  0  1  0  0  0  1  0  0
   -0.7500    1.2990    0.0000 C   0  0  0  0  0  0  0  0  0  0  0  0
    0.7500    1.2990    0.0000 C   0  0  0  0  0  0  0  0  0  0  0  0
  1  2  1  0
  2  3  2  0
  3  4  1  0
  4  5  2  0
  5  6  1  0
  6  7  1  6
  7  8  1  0
  8  9  2  0
  8 10  1  0
  6 11  1  0
 11 12  1  0
  5 13  1  0
 13 14  2  0
 14  2  1  0
M  END
>  <id>  (702) 
61d4fc84-93d1-4f4a-bc48-6873c063fb0f

>  <Version>  (702) 
0

>  <Alias>  (702) 
(3R)-(4MePhe)PA

>  <Type>  (702) 
amino_acid

>  <Smiles>  (702) 
Cc1ccc([C@@H](CC(=O)[*:2])N[*:1])cc1

>  <ProtectedSmiles>  (702) 
Cc1ccc([C@@H](CC(=O)O)NC(=O)OCC2c3ccccc3-c3ccccc32)cc1

>  <CAS>  (702) 
479064-98-7

>  <User>  (702) 
angelica.l

>  <StereoComment>  (702) 
as drawn

>  <Name>  (702) 
(3R)-3-({[(9H-fluoren-9-yl)methoxy]carbonyl}amino)-3-(4-methylphenyl)propanoic acid

>  <Code>  (702) 
(3R)-(4MePhe)PA

>  <AliasLowerCase>  (702) 
(3r)-(4mephe)pa

>  <LatestVersion>  (702) 
0.0

>  <createdAt>  (702) 
2026-01-14T11:35:20.157Z

>  <updatedAt>  (702) 
2026-01-14T11:35:20.157Z

>  <NumRotatableBonds>  (702) 
4

>  <is_N_methyl>  (702) 
False

>  <is_a_methyl>  (702) 
False

>  <is_alpha_aa>  (702) 
False

>  <is_beta_aa>  (702) 
True

>  <is_S100_aa>  (702) 
False

>  <Murcko_SMILES>  (702) 
c1ccccc1

$$$$

     RDKit          2D

 17 18  0  0  0  0  0  0  0  0999 V2000
    5.8875   -6.5486    0.0000 O   0  0  0  0  0  0  0  0  0  0  0  0
    4.6740   -7.4303    0.0000 C   0  0  0  0  0  0  0  0  0  0  0  0
    3.3037   -6.8202    0.0000 C   0  0  0  0  0  0  0  0  0  0  0  0
    2.9918   -5.3529    0.0000 C   0  0  0  0  0  0  0  0  0  0  0  0
    1.5000   -5.1962    0.0000 C   0  0  0  0  0  0  0  0  0  0  0  0
    0.7500   -3.8971    0.0000 O   0  0  0  0  0  0  0  0  0  0  0  0
    1.5000   -2.5981    0.0000 C   0  0  0  0  0  0  0  0  0  0  0  0
    0.7500   -1.2990    0.0000 C   0  0  0  0  0  0  0  0  0  0  0  0
    1.5000    0.0000    0.0000 C   0  0  0  0  0  0  0  0  0  0  0  0
    0.7500    1.2990    0.0000 C   0  0  0  0  0  0  0  0  0  0  0  0
   -0.7500    1.2990    0.0000 C   0  0  0  0  0  0  0  0  0  0  0  0
   -1.5000    0.0000    0.0000 C   0  0  0  0  0  0  0  0  0  0  0  0
   -0.7500   -1.2990    0.0000 C   0  0  0  0  0  0  0  0  0  0  0  0
    0.8899   -6.5665    0.0000 C   0  0  0  0  0  0  0  0  0  0  0  0
    2.0046   -7.5702    0.0000 N   0  0  0  0  0  0  0  0  0  0  0  0
    1.8478   -9.0619    0.0000 R   0  0  0  0  0  1  0  0  0  1  0  0
    4.8308   -8.9221    0.0000 R   0  0  0  0  0  1  0  0  0  2  0  0
  1  2  2  0
  3  2  1  1
  3  4  1  0
  4  5  1  0
  5  6  1  1
  6  7  1  0
  7  8  1  0
  8  9  2  0
  9 10  1  0
 10 11  2  0
 11 12  1  0
 12 13  2  0
  5 14  1  0
 14 15  1  0
 15 16  1  0
  2 17  1  0
 15  3  1  0
 13  8  1  0
M  END
>  <id>  (703) 
e444d551-2434-4d80-a9b0-993aef005a2e

>  <Version>  (703) 
0

>  <Alias>  (703) 
Pro(4S-Bn)

>  <Type>  (703) 
amino_acid

>  <Smiles>  (703) 
O=C([C@@H]1C[C@H](OCc2ccccc2)CN1[*:1])[*:2]

>  <ProtectedSmiles>  (703) 
O=C(O)[C@@H]1C[C@H](OCc2ccccc2)CN1C(=O)OCC1c2ccccc2-c2ccccc21

>  <CAS>  (703) 
1334671-64-5

>  <User>  (703) 
mischa.s

>  <StereoComment>  (703) 
as drawn

>  <Name>  (703) 
(4S)-1-Fmoc-4-benzyloxy-L-proline

>  <Code>  (703) 
Pro(4S-Bn)

>  <AliasLowerCase>  (703) 
pro(4s-bn)

>  <LatestVersion>  (703) 
0.0

>  <createdAt>  (703) 
2026-01-14T11:36:27.965Z

>  <updatedAt>  (703) 
2026-01-14T11:36:27.965Z

>  <NumRotatableBonds>  (703) 
4

>  <is_N_methyl>  (703) 
False

>  <is_a_methyl>  (703) 
False

>  <is_alpha_aa>  (703) 
True

>  <is_beta_aa>  (703) 
False

>  <is_S100_aa>  (703) 
False

>  <Murcko_SMILES>  (703) 
c1ccc(CO[C@H]2CCNC2)cc1

$$$$

     RDKit          2D

 13 12  0  0  0  0  0  0  0  0999 V2000
    9.0933    2.2500    0.0000 N   0  0  0  0  0  0  0  0  0  0  0  0
    9.0933    0.7500    0.0000 C   0  0  0  0  0  0  0  0  0  0  0  0
   10.3923   -0.0000    0.0000 N   0  0  0  0  0  0  0  0  0  0  0  0
    7.7942   -0.0000    0.0000 N   0  0  0  0  0  0  0  0  0  0  0  0
    6.4952    0.7500    0.0000 C   0  0  0  0  0  0  0  0  0  0  0  0
    5.1962   -0.0000    0.0000 C   0  0  0  0  0  0  0  0  0  0  0  0
    3.8971    0.7500    0.0000 C   0  0  0  0  0  0  0  0  0  0  0  0
    2.5981   -0.0000    0.0000 C   0  0  0  0  0  0  0  0  0  0  0  0
    1.2990    0.7500    0.0000 N   0  0  0  0  0  0  0  0  0  0  0  0
    0.0000    0.0000    0.0000 R   0  0  0  0  0  1  0  0  0  1  0  0
    2.5981   -1.5000    0.0000 C   0  0  0  0  0  0  0  0  0  0  0  0
    1.2990   -2.2500    0.0000 O   0  0  0  0  0  0  0  0  0  0  0  0
    3.8971   -2.2500    0.0000 R   0  0  0  0  0  1  0  0  0  2  0  0
  1  2  2  0
  2  3  1  0
  2  4  1  0
  4  5  1  0
  5  6  1  0
  6  7  1  0
  8  7  1  1
  8  9  1  0
  9 10  1  0
  8 11  1  0
 11 12  2  0
 11 13  1  0
M  END
>  <id>  (704) 
a934c752-85f4-4172-a080-dfa3dcd32e90

>  <Version>  (704) 
0

>  <Alias>  (704) 
Arg_UP

>  <Type>  (704) 
amino_acid

>  <Smiles>  (704) 
N=C(N)NCCC[C@H](N[*:1])C(=O)[*:2]

>  <ProtectedSmiles>  (704) 
N=C(N)NCCC[C@H](NC(=O)OCC1c2ccccc2-c2ccccc21)C(=O)O

>  <CAS>  (704) 
91000-69-0

>  <User>  (704) 
Sevan.habeshian@orbismedicines.com

>  <StereoComment>  (704) 
as drawn

>  <Name>  (704) 
N/A

>  <Code>  (704) 
Arg_UP

>  <AliasLowerCase>  (704) 
arg_up

>  <LatestVersion>  (704) 
0.0

>  <createdAt>  (704) 
2026-02-13T09:56:35.459Z

>  <updatedAt>  (704) 
2026-02-13T09:56:35.459Z

>  <NumRotatableBonds>  (704) 
6

>  <is_N_methyl>  (704) 
False

>  <is_a_methyl>  (704) 
False

>  <is_alpha_aa>  (704) 
True

>  <is_beta_aa>  (704) 
False

>  <is_S100_aa>  (704) 
False

>  <Murcko_SMILES>  (704) 


$$$$

     RDKit          2D

 10 10  0  0  0  0  0  0  0  0999 V2000
    2.7760    0.0000    0.0000 C   0  0  0  0  0  0  0  0  0  0  0  0
    1.2760    0.0000    0.0000 C   0  0  0  0  0  0  0  0  0  0  0  0
    0.3943    1.2135    0.0000 C   0  0  0  0  0  0  0  0  0  0  0  0
   -1.0323    0.7500    0.0000 C   0  0  0  0  0  0  0  0  0  0  0  0
   -1.0323   -0.7500    0.0000 N   0  0  0  0  0  0  0  0  0  0  0  0
   -2.2458   -1.6317    0.0000 R   0  0  0  0  0  1  0  0  0  1  0  0
    0.3943   -1.2135    0.0000 C   0  0  0  0  0  0  0  0  0  0  0  0
    0.8578   -2.6401    0.0000 C   0  0  0  0  0  0  0  0  0  0  0  0
    2.3250   -2.9520    0.0000 O   0  0  0  0  0  0  0  0  0  0  0  0
   -0.1459   -3.7548    0.0000 R   0  0  0  0  0  1  0  0  0  2  0  0
  2  1  1  1
  2  3  1  0
  3  4  1  0
  4  5  1  0
  5  6  1  0
  5  7  1  0
  7  8  1  1
  8  9  2  0
  8 10  1  0
  7  2  1  0
M  END
>  <id>  (705) 
44f92cad-aebf-4023-b6b9-15bfb67e45fe

>  <Version>  (705) 
0

>  <Alias>  (705) 
Pro(3R-Me)

>  <Type>  (705) 
amino_acid

>  <Smiles>  (705) 
C[C@@H]1CCN([*:1])[C@@H]1C(=O)[*:2]

>  <ProtectedSmiles>  (705) 
C[C@@H]1CCN(C(=O)OCC2c3ccccc3-c3ccccc32)[C@@H]1C(=O)O

>  <CAS>  (705) 
928330-94-3

>  <User>  (705) 
angelica.l

>  <StereoComment>  (705) 
as drawn

>  <Name>  (705) 
Fmoc-Pro(3R-Me)-OH

>  <Code>  (705) 
Pro(3R-Me)

>  <AliasLowerCase>  (705) 
pro(3r-me)

>  <LatestVersion>  (705) 
0.0

>  <createdAt>  (705) 
2026-01-14T11:36:43.345Z

>  <updatedAt>  (705) 
2026-01-14T11:36:43.345Z

>  <NumRotatableBonds>  (705) 
1

>  <is_N_methyl>  (705) 
False

>  <is_a_methyl>  (705) 
False

>  <is_alpha_aa>  (705) 
True

>  <is_beta_aa>  (705) 
False

>  <is_S100_aa>  (705) 
False

>  <Murcko_SMILES>  (705) 
C1CCNC1

$$$$

     RDKit          2D

 13 12  0  0  0  0  0  0  0  0999 V2000
    9.0933    0.7500    0.0000 C   0  0  0  0  0  0  0  0  0  0  0  0
    7.7942   -0.0000    0.0000 N   0  0  0  0  0  0  0  0  0  0  0  0
    7.7942   -1.5000    0.0000 C   0  0  0  0  0  0  0  0  0  0  0  0
    6.4952    0.7500    0.0000 C   0  0  0  0  0  0  0  0  0  0  0  0
    6.4952    2.2500    0.0000 O   0  0  0  0  0  0  0  0  0  0  0  0
    5.1962   -0.0000    0.0000 C   0  0  0  0  0  0  0  0  0  0  0  0
    3.8971    0.7500    0.0000 C   0  0  0  0  0  0  0  0  0  0  0  0
    2.5981   -0.0000    0.0000 C   0  0  0  0  0  0  0  0  0  0  0  0
    1.2990    0.7500    0.0000 C   0  0  0  0  0  0  0  0  0  0  0  0
    1.2990    2.2500    0.0000 O   0  0  0  0  0  0  0  0  0  0  0  0
    0.0000    0.0000    0.0000 R   0  0  0  0  0  1  0  0  0  2  0  0
    5.1962   -1.5000    0.0000 N   0  0  0  0  0  0  0  0  0  0  0  0
    6.4952   -2.2500    0.0000 R   0  0  0  0  0  1  0  0  0  1  0  0
  1  2  1  0
  2  3  1  0
  2  4  1  0
  4  5  2  0
  4  6  1  0
  6  7  1  1
  7  8  1  0
  8  9  1  0
  9 10  2  0
  9 11  1  0
  6 12  1  0
 12 13  1  0
M  END
>  <id>  (706) 
76246d38-0d61-4b06-992a-ab77407ac749

>  <Version>  (706) 
0

>  <Alias>  (706) 
Gln-NMe2

>  <Type>  (706) 
amino_acid

>  <Smiles>  (706) 
CN(C)C(=O)[C@H](CCC(=O)[*:2])N[*:1]

>  <ProtectedSmiles>  (706) 
CN(C)C(=O)[C@H](CCC(=O)O)NC(=O)OCC1c2ccccc2-c2ccccc21

>  <CAS>  (706) 


>  <User>  (706) 
sevan.h

>  <StereoComment>  (706) 
as drawn

>  <Name>  (706) 
(4S)-5-(dimethylamino)-4-(Fmoc amino)-5-oxo-pentanoic acid

>  <Code>  (706) 
Gln-NMe2

>  <AliasLowerCase>  (706) 
gln-nme2

>  <LatestVersion>  (706) 
0.0

>  <createdAt>  (706) 
2026-01-14T11:37:59.685Z

>  <updatedAt>  (706) 
2026-01-14T11:37:59.685Z

>  <NumRotatableBonds>  (706) 
5

>  <is_N_methyl>  (706) 
False

>  <is_a_methyl>  (706) 
False

>  <is_alpha_aa>  (706) 
False

>  <is_beta_aa>  (706) 
False

>  <is_S100_aa>  (706) 
False

>  <Murcko_SMILES>  (706) 


$$$$

     RDKit          2D

 16 17  0  0  0  0  0  0  0  0999 V2000
   -0.0000   -8.1073    0.0000 O   0  0  0  0  0  0  0  0  0  0  0  0
   -1.2990   -7.3573    0.0000 C   0  0  0  0  0  0  0  0  0  0  0  0
   -1.2990   -5.8573    0.0000 C   0  0  0  0  0  0  0  0  0  0  0  0
   -0.0000   -5.1073    0.0000 C   0  0  0  0  0  0  0  0  0  0  0  0
   -0.0000   -3.6073    0.0000 C   0  0  0  0  0  0  0  0  0  0  0  0
    1.2135   -2.7256    0.0000 C   0  0  0  0  0  0  0  0  0  0  0  0
    0.7500   -1.2990    0.0000 C   0  0  0  0  0  0  0  0  0  0  0  0
    1.5000    0.0000    0.0000 C   0  0  0  0  0  0  0  0  0  0  0  0
    0.7500    1.2990    0.0000 C   0  0  0  0  0  0  0  0  0  0  0  0
   -0.7500    1.2990    0.0000 C   0  0  0  0  0  0  0  0  0  0  0  0
   -1.5000    0.0000    0.0000 C   0  0  0  0  0  0  0  0  0  0  0  0
   -0.7500   -1.2990    0.0000 C   0  0  0  0  0  0  0  0  0  0  0  0
   -1.2135   -2.7256    0.0000 O   0  0  0  0  0  0  0  0  0  0  0  0
   -2.5981   -5.1073    0.0000 N   0  0  0  0  0  0  0  0  0  0  0  0
   -3.8971   -5.8573    0.0000 R   0  0  0  0  0  1  0  0  0  1  0  0
   -2.5981   -8.1073    0.0000 R   0  0  0  0  0  1  0  0  0  2  0  0
  1  2  2  0
  2  3  1  0
  3  4  1  0
  4  5  1  0
  5  6  2  0
  6  7  1  0
  7  8  2  0
  8  9  1  0
  9 10  2  0
 10 11  1  0
 11 12  2  0
 12 13  1  0
  3 14  1  0
 14 15  1  0
  2 16  1  0
 13  5  1  0
 12  7  1  0
M  END
>  <id>  (707) 
f4f7d0bf-4b61-449c-9717-236415ce1d8c

>  <Version>  (707) 
0

>  <Alias>  (707) 
rac-3-1BzFuPA

>  <Type>  (707) 
amino_acid

>  <Smiles>  (707) 
O=C(C(Cc1cc2ccccc2o1)N[*:1])[*:2]

>  <ProtectedSmiles>  (707) 
O=C(NC(Cc1cc2ccccc2o1)C(=O)O)OCC1c2ccccc2-c2ccccc21

>  <CAS>  (707) 
1379879-95-4

>  <User>  (707) 
mischa.s

>  <StereoComment>  (707) 
as drawn

>  <Name>  (707) 
rac-3-(1-benzofuran-2-yl)-2-({[(9H-fluoren-9-yl)methoxy]carbonyl}amino)propanoic acid

>  <Code>  (707) 
rac-3-1BzFuPA

>  <AliasLowerCase>  (707) 
rac-3-1bzfupa

>  <LatestVersion>  (707) 
0.0

>  <createdAt>  (707) 
2026-01-14T11:32:56.385Z

>  <updatedAt>  (707) 
2026-01-14T11:32:56.385Z

>  <NumRotatableBonds>  (707) 
4

>  <is_N_methyl>  (707) 
False

>  <is_a_methyl>  (707) 
False

>  <is_alpha_aa>  (707) 
True

>  <is_beta_aa>  (707) 
False

>  <is_S100_aa>  (707) 
False

>  <Murcko_SMILES>  (707) 
c1ccc2occc2c1

$$$$

     RDKit          2D

 10 10  0  0  0  0  0  0  0  0999 V2000
    3.7500    1.2990    0.0000 O   0  0  0  0  0  0  0  0  0  0  0  0
    3.0000    0.0000    0.0000 C   0  0  0  0  0  0  0  0  0  0  0  0
    1.5000    0.0000    0.0000 C   0  0  0  0  0  0  0  0  0  0  0  0
    0.7500   -1.2990    0.0000 C   0  0  0  0  0  0  0  0  0  0  0  0
   -0.7500   -1.2990    0.0000 C   0  0  0  0  0  0  0  0  0  0  0  0
   -1.5000    0.0000    0.0000 N   0  0  0  0  0  0  0  0  0  0  0  0
   -3.0000    0.0000    0.0000 R   0  0  0  0  0  1  0  0  0  1  0  0
   -0.7500    1.2990    0.0000 C   0  0  0  0  0  0  0  0  0  0  0  0
    0.7500    1.2990    0.0000 C   0  0  0  0  0  0  0  0  0  0  0  0
    3.7500   -1.2990    0.0000 R   0  0  0  0  0  1  0  0  0  2  0  0
  1  2  2  0
  2  3  1  0
  3  4  1  0
  4  5  1  0
  5  6  1  0
  6  7  1  0
  6  8  1  0
  8  9  1  0
  2 10  1  0
  9  3  1  0
M  END
>  <id>  (708) 
ef6af868-ab7c-42f1-adce-2cdad0d41e03

>  <Version>  (708) 
0

>  <Alias>  (708) 
Inip

>  <Type>  (708) 
amino_acid

>  <Smiles>  (708) 
O=C(C1CCN([*:1])CC1)[*:2]

>  <ProtectedSmiles>  (708) 
O=C(O)C1CCN(C(=O)OCC2c3ccccc3-c3ccccc32)CC1

>  <CAS>  (708) 
148928-15-8

>  <User>  (708) 
sevan.h

>  <StereoComment>  (708) 
as drawn

>  <Name>  (708) 
Fmoc-isonipecotic acid

>  <Code>  (708) 
Inip

>  <AliasLowerCase>  (708) 
inip

>  <LatestVersion>  (708) 
0.0

>  <createdAt>  (708) 
2026-01-14T12:17:09.370Z

>  <updatedAt>  (708) 
2026-01-14T12:17:09.370Z

>  <NumRotatableBonds>  (708) 
1

>  <is_N_methyl>  (708) 
False

>  <is_a_methyl>  (708) 
False

>  <is_alpha_aa>  (708) 
False

>  <is_beta_aa>  (708) 
False

>  <is_S100_aa>  (708) 
False

>  <Murcko_SMILES>  (708) 
C1CCNCC1

$$$$

     RDKit          2D

 12 11  0  0  0  0  0  0  0  0999 V2000
    5.1962   -1.5000    0.0000 C   0  0  0  0  0  0  0  0  0  0  0  0
    5.1962   -0.0000    0.0000 C   0  0  0  0  0  0  0  0  0  0  0  0
    3.8971    0.7500    0.0000 C   0  0  0  0  0  0  0  0  0  0  0  0
    2.5981   -0.0000    0.0000 C   0  0  0  0  0  0  0  0  0  0  0  0
    1.2990    0.7500    0.0000 N   0  0  0  0  0  0  0  0  0  0  0  0
    0.0000    0.0000    0.0000 R   0  0  0  0  0  1  0  0  0  1  0  0
    2.5981   -1.5000    0.0000 C   0  0  0  0  0  0  0  0  0  0  0  0
    3.8971   -2.2500    0.0000 N   0  0  0  0  0  0  0  0  0  0  0  0
    1.2990   -2.2500    0.0000 O   0  0  0  0  0  0  0  0  0  0  0  0
    6.4952    0.7500    0.0000 C   0  0  0  0  0  0  0  0  0  0  0  0
    6.4952    2.2500    0.0000 O   0  0  0  0  0  0  0  0  0  0  0  0
    7.7942   -0.0000    0.0000 R   0  0  0  0  0  1  0  0  0  2  0  0
  2  1  1  1
  2  3  1  0
  4  3  1  1
  4  5  1  0
  5  6  1  0
  4  7  1  0
  7  8  1  0
  7  9  2  0
  2 10  1  0
 10 11  2  0
 10 12  1  0
M  END
>  <id>  (709) 
6e5f9e28-cc22-4899-816c-3d6a5d28cab3

>  <Version>  (709) 
0

>  <Alias>  (709) 
(Me)Gln-NH2

>  <Type>  (709) 
amino_acid

>  <Smiles>  (709) 
C[C@@H](C[C@H](N[*:1])C(N)=O)C(=O)[*:2]

>  <ProtectedSmiles>  (709) 
C[C@@H](C[C@H](NC(=O)OCC1c2ccccc2-c2ccccc21)C(N)=O)C(=O)O

>  <CAS>  (709) 


>  <User>  (709) 
sevan.h

>  <StereoComment>  (709) 
as drawn

>  <Name>  (709) 
(2S,4S)-2-methyl-5-Amino-(4-Fmoc-amino)-5-oxopentanoic acid

>  <Code>  (709) 
(Me)Gln-NH2

>  <AliasLowerCase>  (709) 
(me)gln-nh2

>  <LatestVersion>  (709) 
0.0

>  <createdAt>  (709) 
2026-01-14T11:37:14.500Z

>  <updatedAt>  (709) 
2026-01-14T11:37:14.500Z

>  <NumRotatableBonds>  (709) 
5

>  <is_N_methyl>  (709) 
False

>  <is_a_methyl>  (709) 
False

>  <is_alpha_aa>  (709) 
False

>  <is_beta_aa>  (709) 
False

>  <is_S100_aa>  (709) 
False

>  <Murcko_SMILES>  (709) 


$$$$
